
  EPA STORM WATER MANAGEMENT MODEL - VERSION 5.1 (Build 5.1.013)
  --------------------------------------------------------------

  Template input file for Gottesacker karst system.  
  Based on input files created by Zhao Chen. 
  Modified by Chloe Fandel: 
  
  
  *********************************************************
  NOTE: The summary statistics displayed in this report are
  based on results found at every computational time step,  
  not just on results from each reporting time step.
  *********************************************************
  
  ****************
  Analysis Options
  ****************
  Flow Units ............... LPS
  Process Models:
    Rainfall/Runoff ........ YES
    RDII ................... NO
    Snowmelt ............... NO
    Groundwater ............ NO
    Flow Routing ........... YES
    Ponding Allowed ........ NO
    Water Quality .......... NO
  Infiltration Method ...... HORTON
  Flow Routing Method ...... DYNWAVE
  Surcharge Method ......... EXTRAN
  Starting Date ............ 11/14/2013 00:00:00
  Ending Date .............. 10/11/2014 00:00:00
  Antecedent Dry Days ...... 0.0
  Report Time Step ......... 01:00:00
  Wet Time Step ............ 00:30:00
  Dry Time Step ............ 01:00:00
  Routing Time Step ........ 30.00 sec
  Variable Time Step ....... YES
  Maximum Trials ........... 8
  Number of Threads ........ 4
  Head Tolerance ........... 0.001524 m
  
  
  **************************        Volume         Depth
  Runoff Quantity Continuity     hectare-m            mm
  **************************     ---------       -------
  Total Precipitation ......      3473.729      1031.059
  Evaporation Loss .........         0.000         0.000
  Infiltration Loss ........      3282.728       974.366
  Surface Runoff ...........         8.710         2.585
  Final Storage ............         0.000         0.000
  Continuity Error (%) .....         5.248
  
  
  **************************        Volume        Volume
  Flow Routing Continuity        hectare-m      10^6 ltr
  **************************     ---------     ---------
  Dry Weather Inflow .......         0.000         0.000
  Wet Weather Inflow .......         8.710        87.101
  Groundwater Inflow .......         0.000         0.000
  RDII Inflow ..............         0.000         0.000
  External Inflow ..........       713.887      7138.945
  External Outflow .........       713.550      7135.572
  Flooding Loss ............         0.000         0.000
  Evaporation Loss .........         0.000         0.000
  Exfiltration Loss ........         0.000         0.000
  Initial Stored Volume ....         0.000         0.000
  Final Stored Volume ......         9.122        91.221
  Continuity Error (%) .....        -0.010
  
  
  *************************
  Highest Continuity Errors
  *************************
  Node 20 (3.20%)
  Node 22 (2.78%)
  Node 21 (2.66%)
  
  
  ***************************
  Time-Step Critical Elements
  ***************************
  Link 17 (32.99%)
  
  
  ********************************
  Highest Flow Instability Indexes
  ********************************
  Link 24 (69)
  Link 21 (5)
  
  
  *************************
  Routing Time Step Summary
  *************************
  Minimum Time Step           :    16.10 sec
  Average Time Step           :    29.55 sec
  Maximum Time Step           :    30.00 sec
  Percent in Steady State     :     0.30
  Average Iterations per Step :     1.99
  Percent Not Converging      :     0.00
  
  
  ***************************
  Subcatchment Runoff Summary
  ***************************
  
  ------------------------------------------------------------------------------------------------------------------------------
                            Total      Total      Total      Total     Imperv       Perv      Total       Total     Peak  Runoff
                           Precip      Runon       Evap      Infil     Runoff     Runoff     Runoff      Runoff   Runoff   Coeff
  Subcatchment                 mm         mm         mm         mm         mm         mm         mm    10^6 ltr      LPS
  ------------------------------------------------------------------------------------------------------------------------------
  S1                       730.80       0.00       0.00     716.37       1.83      12.62       1.83        0.60     1.02   0.003
  S2                       735.26       0.00       0.00     720.72       1.84      12.71       1.84        2.38     3.96   0.003
  S3                       714.37       0.00       0.00     700.73       1.79      11.87       1.79        2.52     3.66   0.003
  S4                       695.37       0.00       0.00     681.89       1.74      11.76       1.74        1.75     2.16   0.003
  S5                       701.08       0.00       0.00     687.94       1.76      11.40       1.76        0.31     0.41   0.003
  S6                      1252.05       0.00       0.00    1162.29       3.14      86.67       3.14        6.01     8.65   0.003
  S7                      1231.60       0.00       0.00    1145.63       3.09      82.94       3.09        7.26    12.06   0.003
  S8                      1188.90       0.00       0.00    1106.41       2.98      79.56       2.98        5.75     8.63   0.003
  S9                      1158.73       0.00       0.00    1076.95       2.91      78.92       2.91        5.62     7.49   0.003
  S10                     1123.61       0.00       0.00    1045.23       2.82      75.61       2.82        3.78     5.03   0.003
  S11                      838.61       0.00       0.00     816.65       2.10      19.88       2.10        0.70     0.80   0.003
  S12                      842.60       0.00       0.00     820.21       2.11      20.30       2.11        3.92     4.55   0.003
  S13                      829.20       0.00       0.00     808.18       2.08      18.96       2.08        2.11     2.50   0.003
  S14                      802.65       0.00       0.00     783.43       2.01      17.23       2.01        1.85     2.68   0.003
  S15                      797.05       0.00       0.00     778.06       2.00      17.02       2.00        2.29     3.17   0.003
  S16                      862.55       0.00       0.00     837.66       2.16      22.75       2.16        0.65     0.75   0.003
  S17                      852.29       0.00       0.00     828.28       2.14      21.91       2.14        3.70     4.34   0.003
  S18                      864.27       0.00       0.00     838.90       2.17      23.24       2.17        3.75     4.41   0.003
  S19                      867.13       0.00       0.00     841.16       2.17      23.82       2.17        2.40     2.82   0.003
  S20                      857.04       0.00       0.00     832.01       2.15      22.91       2.15        1.67     1.96   0.003
  S21                     1202.10       0.00       0.00    1114.76       3.01      84.37       3.01        3.13     3.87   0.003
  S22                     1222.80       0.00       0.00    1135.42       3.07      84.36       3.07        7.93    10.83   0.003
  S23                     1254.12       0.00       0.00    1164.10       3.15      86.93       3.15        5.02     7.01   0.003
  S24                     1297.93       0.00       0.00    1196.52       3.25      98.20       3.25        0.79     0.97   0.003
  S25                     1201.30       0.00       0.00    1117.78       3.01      80.55       3.01        0.49     0.75   0.003
  S26                     1254.80       0.00       0.00    1161.95       3.15      89.75       3.15        2.36     2.96   0.003
  S27                     1225.08       0.00       0.00    1139.09       3.07      82.96       3.07        3.45     5.27   0.003
  S28                     1226.61       0.00       0.00    1138.97       3.08      84.61       3.08        4.62     5.98   0.003
  S29                     1148.63       0.00       0.00    1069.80       2.88      75.99       2.88        0.31     0.41   0.003
  
  
  ******************
  Node Depth Summary
  ******************
  
  ---------------------------------------------------------------------------------
                                 Average  Maximum  Maximum  Time of Max    Reported
                                   Depth    Depth      HGL   Occurrence   Max Depth
  Node                 Type       Meters   Meters   Meters  days hr:min      Meters
  ---------------------------------------------------------------------------------
  0                    JUNCTION     2.42     2.51  5247.06   291  07:05        2.51
  1                    JUNCTION     3.95     4.06  5247.06   291  07:00        4.06
  2                    JUNCTION     1.09     1.19  5247.08   291  07:40        1.19
  3                    JUNCTION     1.08     1.18  5247.08   291  07:40        1.18
  4                    JUNCTION     0.35     0.43  5247.09   291  07:54        0.43
  5                    JUNCTION     0.96     1.05  5247.08   291  07:43        1.05
  6                    JUNCTION     1.61     1.71  5247.08   291  07:34        1.71
  7                    JUNCTION     0.36     0.45  5247.09   291  07:52        0.45
  8                    JUNCTION     0.13     0.16  5247.14   291  15:52        0.16
  9                    JUNCTION     1.45     1.55  5247.08   291  07:34        1.55
  10                   JUNCTION     1.73     1.82  5247.07   291  07:27        1.82
  11                   JUNCTION     1.66     1.75  5247.07   291  07:26        1.75
  12                   JUNCTION     1.39     1.48  5247.07   291  07:26        1.48
  13                   JUNCTION     1.14     1.24  5247.08   291  07:23        1.24
  14                   JUNCTION     1.17     1.26  5247.08   291  07:24        1.26
  15                   JUNCTION     0.09     0.12  5248.25   262  21:30        0.12
  16                   JUNCTION     0.58     0.66  5247.09   291  06:47        0.66
  17                   JUNCTION     0.43     0.52  5247.09   291  06:53        0.52
  18                   JUNCTION     0.34     0.43  5247.09   291  06:53        0.43
  19                   JUNCTION     0.52     0.60  5247.09   291  06:47        0.60
  20                   JUNCTION     2.91     3.01  5247.06   291  07:18        3.01
  21                   JUNCTION     0.68     0.77  5247.09   291  06:46        0.77
  22                   JUNCTION     0.62     0.70  5247.09   291  06:46        0.70
  23                   JUNCTION     0.53     0.62  5247.09   291  06:38        0.62
  24                   JUNCTION     0.91     1.00  5247.09   291  06:42        1.00
  25                   JUNCTION     0.68     0.77  5247.09   291  06:46        0.77
  26                   JUNCTION     2.59     2.69  5247.06   291  07:14        2.69
  27                   OUTFALL      0.20     0.24  5246.93   291  07:16        0.24
  
  
  *******************
  Node Inflow Summary
  *******************
  
  -------------------------------------------------------------------------------------------------
                                  Maximum  Maximum                  Lateral       Total        Flow
                                  Lateral    Total  Time of Max      Inflow      Inflow     Balance
                                   Inflow   Inflow   Occurrence      Volume      Volume       Error
  Node                 Type           LPS      LPS  days hr:min    10^6 ltr    10^6 ltr     Percent
  -------------------------------------------------------------------------------------------------
  0                    JUNCTION     13.37    76.90     2  02:47         120         131      10.780
  1                    JUNCTION     56.30   242.55     1  18:16         677         683       0.000
  2                    JUNCTION     32.43    32.43   291  16:00         659         659       0.000
  3                    JUNCTION     20.77   122.00   291  11:10         420     2.4e+03       0.056
  4                    JUNCTION     14.54    14.54   291  16:00         293         293       0.025
  5                    JUNCTION      6.75    67.45   291  08:12         131    1.33e+03       0.246
  6                    JUNCTION     41.55   182.13   291  11:11         744    3.59e+03       0.084
  7                    JUNCTION     20.00    51.98   291  17:51         404    1.06e+03       0.034
  8                    JUNCTION     17.38    17.38   291  15:00         358         358       0.007
  9                    JUNCTION     21.55    21.55   291  15:00         445         445       0.089
  10                   JUNCTION     22.72   278.68   291  08:26         244     6.4e+03       0.088
  11                   JUNCTION     27.90   134.89     1  19:25         297    2.56e+03       0.074
  12                   JUNCTION     22.89    22.89     1  01:00         244         244       0.173
  13                   JUNCTION     22.94    22.94     1  01:00         250         250       0.076
  14                   JUNCTION     19.34   108.19   262  19:01         177    2.03e+03       0.096
  15                   JUNCTION     15.24    15.24   262  19:00         143         143       0.069
  16                   JUNCTION     26.53    42.08   262  19:04         541         626       0.029
  17                   JUNCTION     28.20    87.29   262  19:06         574     1.6e+03       0.023
  18                   JUNCTION     19.77    19.77   291  14:00         401         401       0.003
  19                   JUNCTION      3.53     3.53   291  15:00        71.6        71.6       0.031
  20                   JUNCTION     14.62   279.39     1  15:49        10.4         844       3.304
  21                   JUNCTION      0.00    33.89     1  03:21           0        14.5       2.735
  22                   JUNCTION      0.00     9.43     1  03:40           0        2.58       2.858
  23                   JUNCTION      2.16     3.00     1  03:40        1.75         1.9       3.921
  24                   JUNCTION     16.12    28.54     1  03:02        11.4        11.7       0.000
  25                   JUNCTION      0.41     3.63     1  02:09       0.313       0.526       0.000
  26                   JUNCTION     11.18   333.23   262  21:04         8.7     7.2e+03       0.272
  27                   OUTFALL       0.00   327.22   291  07:16           0    7.14e+03       0.000
  
  
  **********************
  Node Surcharge Summary
  **********************
  
  Surcharging occurs when water rises above the top of the highest conduit.
  ---------------------------------------------------------------------
                                               Max. Height   Min. Depth
                                   Hours       Above Crown    Below Rim
  Node                 Type      Surcharged         Meters       Meters
  ---------------------------------------------------------------------
  1                    JUNCTION     7867.85          1.059        0.000
  20                   JUNCTION       27.13          0.008        0.000
  
  
  *********************
  Node Flooding Summary
  *********************
  
  No nodes were flooded.
  
  
  ***********************
  Outfall Loading Summary
  ***********************
  
  -----------------------------------------------------------
                         Flow       Avg       Max       Total
                         Freq      Flow      Flow      Volume
  Outfall Node           Pcnt       LPS       LPS    10^6 ltr
  -----------------------------------------------------------
  27                    98.75    253.23    327.22    7135.539
  -----------------------------------------------------------
  System                98.75    253.23    327.22    7135.539
  
  
  ********************
  Link Flow Summary
  ********************
  
  -----------------------------------------------------------------------------
                                 Maximum  Time of Max   Maximum    Max/    Max/
                                  |Flow|   Occurrence   |Veloc|    Full    Full
  Link                 Type          LPS  days hr:min     m/sec    Flow   Depth
  -----------------------------------------------------------------------------
  0                    CONDUIT    222.08     1  18:16      0.12    0.11    1.00
  1                    CONDUIT     32.52   291  18:07      0.10    0.05    0.39
  2                    CONDUIT     68.84   291  11:07      0.12    0.03    0.37
  3                    CONDUIT     52.39   291  11:53      0.16    0.02    0.25
  4                    CONDUIT     10.18   262  21:30      0.08    0.00    0.19
  5                    CONDUIT    122.58   291  11:13      0.16    0.04    0.48
  6                    CONDUIT     21.64   291  18:05      0.12    0.01    0.54
  7                    CONDUIT     14.61   291  18:18      0.05    0.02    0.15
  8                    CONDUIT     17.38   291  15:52      0.11    0.01    0.10
  9                    CONDUIT    182.94   291  11:11      0.14    0.13    0.59
  10                   CONDUIT    134.86     1  20:25      0.38    0.07    0.60
  11                   CONDUIT     23.88     1  01:31      0.25    0.01    0.54
  12                   CONDUIT    103.09   262  19:05      0.19    0.03    0.50
  13                   CONDUIT     23.91     1  01:42      0.17    0.02    0.42
  14                   CONDUIT     84.91   262  19:27      0.32    0.03    0.30
  15                   CONDUIT     40.66   262  19:06      0.34    0.01    0.20
  16                   CONDUIT      3.54   291  10:58      0.21    0.00    0.21
  17                   CONDUIT     19.78   291  15:35      0.18    0.00    0.16
  18                   CONDUIT     73.37     2  02:47      0.06    0.06    0.92
  19                   CONDUIT    276.98     1  15:48      0.27    0.12    0.95
  20                   CONDUIT     33.89     1  03:21      0.24    0.01    0.24
  21                   CONDUIT      9.43     1  03:40      0.08    0.00    0.25
  22                   CONDUIT      3.00     1  03:40      0.03    0.00    0.22
  23                   CONDUIT     28.54     1  03:02      0.13    0.01    0.30
  24                   CONDUIT      3.63     1  02:09      0.06    0.00    0.25
  25                   CONDUIT    279.85   291  10:48      0.26    0.11    0.75
  26                   CONDUIT    327.22   291  07:16      0.10    0.12    0.49
  
  
  ***************************
  Flow Classification Summary
  ***************************
  
  -------------------------------------------------------------------------------------
                      Adjusted    ---------- Fraction of Time in Flow Class ---------- 
                       /Actual         Up    Down  Sub   Sup   Up    Down  Norm  Inlet 
  Conduit               Length    Dry  Dry   Dry   Crit  Crit  Crit  Crit  Ltd   Ctrl  
  -------------------------------------------------------------------------------------
  0                       1.00   0.00  0.00  0.00  1.00  0.00  0.00  0.00  0.00  0.00
  1                       1.00   0.00  0.00  0.00  1.00  0.00  0.00  0.00  0.00  0.00
  2                       1.00   0.00  0.00  0.00  1.00  0.00  0.00  0.00  0.00  0.00
  3                       1.00   0.00  0.00  0.00  1.00  0.00  0.00  0.00  0.01  0.00
  4                       1.00   0.00  0.00  0.00  1.00  0.00  0.00  0.00  1.00  0.00
  5                       1.00   0.00  0.00  0.00  1.00  0.00  0.00  0.00  0.01  0.00
  6                       1.00   0.00  0.00  0.00  1.00  0.00  0.00  0.00  0.00  0.00
  7                       1.00   0.00  0.00  0.00  1.00  0.00  0.00  0.00  0.00  0.00
  8                       1.00   0.00  0.00  0.00  1.00  0.00  0.00  0.00  1.00  0.00
  9                       1.00   0.00  0.00  0.00  1.00  0.00  0.00  0.00  0.00  0.00
  10                      1.00   0.00  0.00  0.00  1.00  0.00  0.00  0.00  0.00  0.00
  11                      1.00   0.00  0.00  0.00  1.00  0.00  0.00  0.00  0.00  0.00
  12                      1.00   0.00  0.00  0.00  1.00  0.00  0.00  0.00  0.01  0.00
  13                      1.00   0.00  0.00  0.00  1.00  0.00  0.00  0.00  0.00  0.00
  14                      1.00   0.00  0.00  0.00  1.00  0.00  0.00  0.00  0.01  0.00
  15                      1.00   0.00  0.00  0.00  1.00  0.00  0.00  0.00  0.00  0.00
  16                      1.00   0.00  0.00  0.00  1.00  0.00  0.00  0.00  0.00  0.00
  17                      1.00   0.00  0.00  0.00  1.00  0.00  0.00  0.00  0.00  0.00
  18                      1.00   0.00  0.00  0.00  1.00  0.00  0.00  0.00  0.00  0.00
  19                      1.00   0.00  0.00  0.00  1.00  0.00  0.00  0.00  0.00  0.00
  20                      1.00   0.00  0.00  0.00  1.00  0.00  0.00  0.00  0.00  0.00
  21                      1.00   0.00  0.00  0.00  1.00  0.00  0.00  0.00  0.00  0.00
  22                      1.00   0.00  0.00  0.00  1.00  0.00  0.00  0.00  0.00  0.00
  23                      1.00   0.00  0.00  0.00  1.00  0.00  0.00  0.00  0.00  0.00
  24                      1.00   0.00  0.00  0.00  1.00  0.00  0.00  0.00  0.00  0.00
  25                      1.00   0.00  0.00  0.00  1.00  0.00  0.00  0.00  0.00  0.00
  26                      1.00   0.00  0.01  0.00  0.99  0.00  0.00  0.00  0.00  0.00
  
  
  *************************
  Conduit Surcharge Summary
  *************************
  
  ----------------------------------------------------------------------------
                                                           Hours        Hours 
                         --------- Hours Full --------   Above Full   Capacity
  Conduit                Both Ends  Upstream  Dnstream   Normal Flow   Limited
  ----------------------------------------------------------------------------
  0                          27.08     27.08   7867.85      0.01         0.01
  18                          0.01      0.01     27.08      0.01         0.01
  19                          0.01      0.01     27.08      0.01         0.01
  

  Analysis begun on:  Thu Dec  6 13:43:15 2018
  Analysis ended on:  Thu Dec  6 13:43:48 2018
  Total elapsed time: 00:00:33