
  EPA STORM WATER MANAGEMENT MODEL - VERSION 5.1 (Build 5.1.013)
  --------------------------------------------------------------

  Template input file for Gottesacker karst system.  
  Based on input files created by Zhao Chen. 
  Modified by Chloe Fandel: 
  
  WARNING 04: minimum elevation drop used for Conduit 8
  
  *********************************************************
  NOTE: The summary statistics displayed in this report are
  based on results found at every computational time step,  
  not just on results from each reporting time step.
  *********************************************************
  
  ****************
  Analysis Options
  ****************
  Flow Units ............... LPS
  Process Models:
    Rainfall/Runoff ........ YES
    RDII ................... NO
    Snowmelt ............... NO
    Groundwater ............ NO
    Flow Routing ........... YES
    Ponding Allowed ........ NO
    Water Quality .......... NO
  Infiltration Method ...... HORTON
  Flow Routing Method ...... DYNWAVE
  Surcharge Method ......... EXTRAN
  Starting Date ............ 11/14/2013 00:00:00
  Ending Date .............. 10/11/2014 00:00:00
  Antecedent Dry Days ...... 0.0
  Report Time Step ......... 01:00:00
  Wet Time Step ............ 00:30:00
  Dry Time Step ............ 01:00:00
  Routing Time Step ........ 30.00 sec
  Variable Time Step ....... YES
  Maximum Trials ........... 8
  Number of Threads ........ 4
  Head Tolerance ........... 0.001524 m
  
  
  **************************        Volume         Depth
  Runoff Quantity Continuity     hectare-m            mm
  **************************     ---------       -------
  Total Precipitation ......      3473.729      1031.059
  Evaporation Loss .........         0.000         0.000
  Infiltration Loss ........      3282.728       974.366
  Surface Runoff ...........         8.710         2.585
  Final Storage ............         0.000         0.000
  Continuity Error (%) .....         5.248
  
  
  **************************        Volume        Volume
  Flow Routing Continuity        hectare-m      10^6 ltr
  **************************     ---------     ---------
  Dry Weather Inflow .......         0.000         0.000
  Wet Weather Inflow .......         8.710        87.102
  Groundwater Inflow .......         0.000         0.000
  RDII Inflow ..............         0.000         0.000
  External Inflow ..........       713.887      7138.945
  External Outflow .........       713.195      7132.024
  Flooding Loss ............         0.000         0.000
  Evaporation Loss .........         0.000         0.000
  Exfiltration Loss ........         0.000         0.000
  Initial Stored Volume ....         0.000         0.000
  Final Stored Volume ......         9.430        94.302
  Continuity Error (%) .....        -0.004
  
  
  *************************
  Highest Continuity Errors
  *************************
  Node 16 (2.00%)
  
  
  ***************************
  Time-Step Critical Elements
  ***************************
  None
  
  
  ********************************
  Highest Flow Instability Indexes
  ********************************
  All links are stable.
  
  
  *************************
  Routing Time Step Summary
  *************************
  Minimum Time Step           :    29.50 sec
  Average Time Step           :    29.91 sec
  Maximum Time Step           :    30.00 sec
  Percent in Steady State     :     0.30
  Average Iterations per Step :     1.99
  Percent Not Converging      :     0.00
  
  
  ***************************
  Subcatchment Runoff Summary
  ***************************
  
  ------------------------------------------------------------------------------------------------------------------------------
                            Total      Total      Total      Total     Imperv       Perv      Total       Total     Peak  Runoff
                           Precip      Runon       Evap      Infil     Runoff     Runoff     Runoff      Runoff   Runoff   Coeff
  Subcatchment                 mm         mm         mm         mm         mm         mm         mm    10^6 ltr      LPS
  ------------------------------------------------------------------------------------------------------------------------------
  S1                       730.80       0.00       0.00     716.37       1.83      12.62       1.83        0.60     1.02   0.003
  S2                       735.26       0.00       0.00     720.72       1.84      12.71       1.84        2.38     3.96   0.003
  S3                       714.37       0.00       0.00     700.73       1.79      11.87       1.79        2.52     3.66   0.003
  S4                       695.37       0.00       0.00     681.89       1.74      11.76       1.74        1.75     2.16   0.003
  S5                       701.08       0.00       0.00     687.94       1.76      11.40       1.76        0.31     0.41   0.003
  S6                      1252.05       0.00       0.00    1162.29       3.14      86.67       3.14        6.01     8.65   0.003
  S7                      1231.60       0.00       0.00    1145.63       3.09      82.94       3.09        7.26    12.06   0.003
  S8                      1188.90       0.00       0.00    1106.41       2.98      79.56       2.98        5.75     8.63   0.003
  S9                      1158.73       0.00       0.00    1076.95       2.91      78.92       2.91        5.62     7.49   0.003
  S10                     1123.61       0.00       0.00    1045.23       2.82      75.61       2.82        3.78     5.03   0.003
  S11                      838.61       0.00       0.00     816.65       2.10      19.88       2.10        0.70     0.80   0.003
  S12                      842.60       0.00       0.00     820.21       2.11      20.30       2.11        3.92     4.55   0.003
  S13                      829.20       0.00       0.00     808.18       2.08      18.96       2.08        2.11     2.50   0.003
  S14                      802.65       0.00       0.00     783.43       2.01      17.23       2.01        1.85     2.68   0.003
  S15                      797.05       0.00       0.00     778.06       2.00      17.02       2.00        2.29     3.17   0.003
  S16                      862.55       0.00       0.00     837.66       2.16      22.75       2.16        0.65     0.75   0.003
  S17                      852.29       0.00       0.00     828.28       2.14      21.91       2.14        3.70     4.34   0.003
  S18                      864.27       0.00       0.00     838.90       2.17      23.24       2.17        3.75     4.41   0.003
  S19                      867.13       0.00       0.00     841.16       2.17      23.82       2.17        2.40     2.82   0.003
  S20                      857.04       0.00       0.00     832.01       2.15      22.91       2.15        1.67     1.96   0.003
  S21                     1202.10       0.00       0.00    1114.76       3.01      84.37       3.01        3.13     3.87   0.003
  S22                     1222.80       0.00       0.00    1135.42       3.07      84.36       3.07        7.93    10.83   0.003
  S23                     1254.12       0.00       0.00    1164.10       3.15      86.93       3.15        5.02     7.01   0.003
  S24                     1297.93       0.00       0.00    1196.52       3.25      98.20       3.25        0.79     0.97   0.003
  S25                     1201.30       0.00       0.00    1117.78       3.01      80.55       3.01        0.49     0.75   0.003
  S26                     1254.80       0.00       0.00    1161.95       3.15      89.75       3.15        2.36     2.96   0.003
  S27                     1225.08       0.00       0.00    1139.09       3.07      82.96       3.07        3.45     5.27   0.003
  S28                     1226.61       0.00       0.00    1138.97       3.08      84.61       3.08        4.62     5.98   0.003
  S29                     1148.63       0.00       0.00    1069.80       2.88      75.99       2.88        0.31     0.41   0.003
  
  
  ******************
  Node Depth Summary
  ******************
  
  ---------------------------------------------------------------------------------
                                 Average  Maximum  Maximum  Time of Max    Reported
                                   Depth    Depth      HGL   Occurrence   Max Depth
  Node                 Type       Meters   Meters   Meters  days hr:min      Meters
  ---------------------------------------------------------------------------------
  0                    JUNCTION     2.34     2.44  5247.05   291  07:04        2.44
  1                    JUNCTION     3.97     4.08  5247.05   291  07:00        4.08
  2                    JUNCTION     1.05     1.15  5247.06   291  07:13        1.15
  3                    JUNCTION     1.34     1.44  5247.06   291  07:13        1.44
  4                    JUNCTION     0.96     1.05  5247.07   291  07:14        1.05
  5                    JUNCTION     0.25     0.29  5247.12   291  16:40        0.29
  6                    JUNCTION     0.20     0.24  5247.22   291  16:03        0.24
  7                    JUNCTION     0.24     0.28  5247.12   291  16:40        0.28
  8                    JUNCTION     0.73     0.82  5247.07   291  07:12        0.82
  9                    JUNCTION     0.73     0.82  5247.07   291  07:12        0.82
  10                   JUNCTION     0.21     0.28  5247.07   291  07:02        0.28
  11                   JUNCTION     0.24     0.30  5247.07     1  14:22        0.30
  12                   JUNCTION     1.57     1.67  5247.05   291  07:06        1.67
  13                   JUNCTION     2.43     2.53  5247.05   291  07:03        2.53
  14                   JUNCTION     1.70     1.80  5247.05   291  07:06        1.80
  15                   JUNCTION     0.09     0.12  5248.18   262  21:08        0.12
  16                   JUNCTION     2.97     3.07  5247.05   291  07:05        3.07
  17                   JUNCTION     0.18     0.23  5247.10   291  06:58        0.23
  18                   JUNCTION     0.21     0.28  5247.07   291  06:54        0.28
  19                   JUNCTION     0.90     0.99  5247.05   291  07:03        0.99
  20                   JUNCTION     0.84     0.93  5247.05   291  07:00        0.93
  21                   JUNCTION     0.08     0.15  5247.07   291  06:10        0.15
  22                   JUNCTION     2.61     2.71  5247.05   291  07:09        2.71
  23                   OUTFALL      0.20     0.24  5246.92   291  07:10        0.24
  
  
  *******************
  Node Inflow Summary
  *******************
  
  -------------------------------------------------------------------------------------------------
                                  Maximum  Maximum                  Lateral       Total        Flow
                                  Lateral    Total  Time of Max      Inflow      Inflow     Balance
                                   Inflow   Inflow   Occurrence      Volume      Volume       Error
  Node                 Type           LPS      LPS  days hr:min    10^6 ltr    10^6 ltr     Percent
  -------------------------------------------------------------------------------------------------
  0                    JUNCTION     13.37    69.95     2  03:30         120         131      10.528
  1                    JUNCTION     56.30   234.29     1  18:06         677         683       0.000
  2                    JUNCTION     32.43    32.43   291  16:00         659         659       0.070
  3                    JUNCTION     25.53   189.62   262  21:00         426    4.14e+03       0.106
  4                    JUNCTION     14.54   139.09   262  19:09         293    3.06e+03       0.058
  5                    JUNCTION      6.75     6.75   291  15:00         131         131       0.000
  6                    JUNCTION     37.66    37.66   291  16:00         739         739       0.003
  7                    JUNCTION     20.00    64.41   291  16:00         404    1.27e+03       0.015
  8                    JUNCTION     17.38    78.69     1  13:58         358     1.5e+03       0.061
  9                    JUNCTION     29.78    29.78   262  19:00         451         451       0.000
  10                   JUNCTION     22.72    54.31     1  12:51         242         687       0.031
  11                   JUNCTION     27.90    27.90     1  01:00         304         304       0.000
  12                   JUNCTION     22.89    22.89     1  01:00         244         244       0.177
  13                   JUNCTION     22.94   254.36   291  07:10         246    5.86e+03       0.192
  14                   JUNCTION     15.90    70.57   262  19:06         171    1.48e+03       0.264
  15                   JUNCTION     11.58    11.58   262  19:00         141         141       0.039
  16                   JUNCTION     37.95   273.92     1  17:31         549    1.38e+03       2.042
  17                   JUNCTION     28.20    28.20   291  15:00         574         574       0.002
  18                   JUNCTION     19.77    51.76   262  19:13         401         979       0.014
  19                   JUNCTION     12.07    71.30   262  19:00        77.3    1.07e+03       0.177
  20                   JUNCTION     12.27    12.27   262  19:00        9.39        9.63       2.285
  21                   JUNCTION      6.23     6.23   262  19:00        4.58         4.6       0.347
  22                   JUNCTION      6.39   332.52   291  06:01        4.93    7.19e+03       0.241
  23                   OUTFALL       0.00   329.35   291  07:10           0    7.13e+03       0.000
  
  
  **********************
  Node Surcharge Summary
  **********************
  
  Surcharging occurs when water rises above the top of the highest conduit.
  ---------------------------------------------------------------------
                                               Max. Height   Min. Depth
                                   Hours       Above Crown    Below Rim
  Node                 Type      Surcharged         Meters       Meters
  ---------------------------------------------------------------------
  1                    JUNCTION     7864.79          1.077        0.000
  16                   JUNCTION     3035.26          0.075        0.000
  
  
  *********************
  Node Flooding Summary
  *********************
  
  No nodes were flooded.
  
  
  ***********************
  Outfall Loading Summary
  ***********************
  
  -----------------------------------------------------------
                         Flow       Avg       Max       Total
                         Freq      Flow      Flow      Volume
  Outfall Node           Pcnt       LPS       LPS    10^6 ltr
  -----------------------------------------------------------
  23                    98.68    252.71    329.35    7131.991
  -----------------------------------------------------------
  System                98.68    252.71    329.35    7131.991
  
  
  ********************
  Link Flow Summary
  ********************
  
  -----------------------------------------------------------------------------
                                 Maximum  Time of Max   Maximum    Max/    Max/
                                  |Flow|   Occurrence   |Veloc|    Full    Full
  Link                 Type          LPS  days hr:min     m/sec    Flow   Depth
  -----------------------------------------------------------------------------
  0                    CONDUIT    213.82     1  18:06      0.18    0.10    1.00
  1                    CONDUIT     32.59   291  18:01      0.28    0.01    0.43
  2                    CONDUIT    135.42   262  22:12      0.23    0.04    0.41
  3                    CONDUIT     64.40   291  16:40      0.23    0.02    0.22
  4                    CONDUIT     78.68     1  15:03      0.15    0.03    0.31
  5                    CONDUIT      6.74   291  16:34      0.08    0.01    0.10
  6                    CONDUIT     37.66   291  16:01      0.24    0.01    0.09
  7                    CONDUIT     54.30     1  14:38      0.39    0.02    0.18
  8                    CONDUIT     29.39   262  19:01      0.12    0.16    0.27
  9                    CONDUIT      9.46   262  21:08      0.05    0.00    0.07
  10                   CONDUIT     28.67     1  01:13      0.22    0.01    0.10
  11                   CONDUIT    189.66   291  10:13      0.16    0.07    0.66
  12                   CONDUIT     69.65     1  10:02      0.26    0.02    0.72
  13                   CONDUIT     24.61     1  02:05      0.24    0.01    0.58
  14                   CONDUIT     63.65   262  19:06      0.12    0.02    0.46
  15                   CONDUIT     66.42     2  03:30      0.05    0.05    0.91
  16                   CONDUIT    256.39     1  17:28      0.25    0.11    0.95
  17                   CONDUIT     28.21   291  15:57      0.15    0.01    0.09
  18                   CONDUIT      5.08   262  19:11      0.03    0.00    0.07
  19                   CONDUIT     49.78   291  06:15      0.16    0.01    0.21
  20                   CONDUIT     11.36   312  00:01      0.03    0.01    0.32
  21                   CONDUIT    255.11   291  10:04      0.21    0.17    0.87
  22                   CONDUIT    329.35   291  07:10      0.10    0.12    0.49
  
  
  ***************************
  Flow Classification Summary
  ***************************
  
  -------------------------------------------------------------------------------------
                      Adjusted    ---------- Fraction of Time in Flow Class ---------- 
                       /Actual         Up    Down  Sub   Sup   Up    Down  Norm  Inlet 
  Conduit               Length    Dry  Dry   Dry   Crit  Crit  Crit  Crit  Ltd   Ctrl  
  -------------------------------------------------------------------------------------
  0                       1.00   0.00  0.00  0.00  1.00  0.00  0.00  0.00  0.00  0.00
  1                       1.00   0.00  0.00  0.00  1.00  0.00  0.00  0.00  0.00  0.00
  2                       1.00   0.00  0.00  0.00  1.00  0.00  0.00  0.00  0.01  0.00
  3                       1.00   0.00  0.00  0.00  1.00  0.00  0.00  0.00  1.00  0.00
  4                       1.00   0.00  0.00  0.00  1.00  0.00  0.00  0.00  0.00  0.00
  5                       1.00   0.00  0.00  0.00  1.00  0.00  0.00  0.00  0.00  0.00
  6                       1.00   0.00  0.00  0.00  1.00  0.00  0.00  0.00  0.99  0.00
  7                       1.00   0.00  0.00  0.00  1.00  0.00  0.00  0.00  0.49  0.00
  8                       1.00   0.00  0.00  0.00  1.00  0.00  0.00  0.00  0.00  0.00
  9                       1.00   0.00  0.00  0.00  1.00  0.00  0.00  0.00  1.00  0.00
  10                      1.00   0.00  0.00  0.00  1.00  0.00  0.00  0.00  0.00  0.00
  11                      1.00   0.00  0.00  0.00  1.00  0.00  0.00  0.00  0.01  0.00
  12                      1.00   0.00  0.00  0.00  1.00  0.00  0.00  0.00  0.00  0.00
  13                      1.00   0.00  0.00  0.00  1.00  0.00  0.00  0.00  0.00  0.00
  14                      1.00   0.00  0.00  0.00  1.00  0.00  0.00  0.00  0.01  0.00
  15                      1.00   0.00  0.00  0.00  1.00  0.00  0.00  0.00  0.00  0.00
  16                      1.00   0.00  0.00  0.00  1.00  0.00  0.00  0.00  0.00  0.00
  17                      1.00   0.00  0.00  0.00  1.00  0.00  0.00  0.00  0.00  0.00
  18                      1.00   0.00  0.00  0.00  1.00  0.00  0.00  0.00  0.00  0.00
  19                      1.00   0.00  0.00  0.00  1.00  0.00  0.00  0.00  0.62  0.00
  20                      1.00   0.00  0.00  0.00  1.00  0.00  0.00  0.00  0.00  0.00
  21                      1.00   0.00  0.00  0.00  1.00  0.00  0.00  0.00  0.00  0.00
  22                      1.00   0.00  0.01  0.00  0.99  0.00  0.00  0.00  0.00  0.00
  
  
  *************************
  Conduit Surcharge Summary
  *************************
  
  ----------------------------------------------------------------------------
                                                           Hours        Hours 
                         --------- Hours Full --------   Above Full   Capacity
  Conduit                Both Ends  Upstream  Dnstream   Normal Flow   Limited
  ----------------------------------------------------------------------------
  0                        3032.99   3032.99   7864.79      0.01         0.01
  15                          0.01      0.01   3032.99      0.01         0.01
  16                          0.01      0.01   3032.99      0.01         0.01
  

  Analysis begun on:  Thu Dec  6 13:08:23 2018
  Analysis ended on:  Thu Dec  6 13:08:53 2018
  Total elapsed time: 00:00:30