
  EPA STORM WATER MANAGEMENT MODEL - VERSION 5.0 (Build 5.0.022)
  --------------------------------------------------------------

  Input file for Gottesacker karst system. 
  Created by Zhao Chen. 
  Modified by Chloé Fandel: 
  
  *********************************************************
  NOTE: The summary statistics displayed in this report are
  based on results found at every computational time step,  
  not just on results from each reporting time step.
  *********************************************************
  
  ****************
  Analysis Options
  ****************
  Flow Units ............... LPS
  Process Models:
    Rainfall/Runoff ........ YES
    Snowmelt ............... NO
    Groundwater ............ NO
    Flow Routing ........... YES
    Ponding Allowed ........ NO
    Water Quality .......... NO
  Infiltration Method ...... HORTON
  Flow Routing Method ...... DYNWAVE
  Starting Date ............ NOV-14-2013 00:00:00
  Ending Date .............. OCT-11-2014 00:00:00
  Antecedent Dry Days ...... 0.0
  Report Time Step ......... 01:00:00
  Wet Time Step ............ 00:30:00
  Dry Time Step ............ 01:00:00
  Routing Time Step ........ 30.00 sec
  

  WARNING 03: negative offset ignored for Link 2001

  WARNING 03: negative offset ignored for Link 2001

  WARNING 03: negative offset ignored for Link 2002

  WARNING 03: negative offset ignored for Link 2002

  WARNING 03: negative offset ignored for Link 2003

  WARNING 03: negative offset ignored for Link 2003

  WARNING 03: negative offset ignored for Link 2004

  WARNING 03: negative offset ignored for Link 2004

  WARNING 03: negative offset ignored for Link 2005

  WARNING 03: negative offset ignored for Link 2005

  WARNING 03: negative offset ignored for Link 2006

  WARNING 03: negative offset ignored for Link 2006

  WARNING 03: negative offset ignored for Link 2007

  WARNING 03: negative offset ignored for Link 2007

  WARNING 03: negative offset ignored for Link 2008

  WARNING 03: negative offset ignored for Link 2008

  WARNING 03: negative offset ignored for Link 2009

  WARNING 03: negative offset ignored for Link 2009

  WARNING 03: negative offset ignored for Link 2010

  WARNING 03: negative offset ignored for Link 2010

  WARNING 03: negative offset ignored for Link 2011

  WARNING 03: negative offset ignored for Link 2011

  WARNING 03: negative offset ignored for Link 2012

  WARNING 03: negative offset ignored for Link 2012

  WARNING 03: negative offset ignored for Link 2013

  WARNING 03: negative offset ignored for Link 2013

  WARNING 03: negative offset ignored for Link 2014

  WARNING 03: negative offset ignored for Link 2014

  WARNING 03: negative offset ignored for Link 2015

  WARNING 03: negative offset ignored for Link 2015

  WARNING 03: negative offset ignored for Link 2016

  WARNING 03: negative offset ignored for Link 2016

  WARNING 03: negative offset ignored for Link 2017

  WARNING 03: negative offset ignored for Link 2017

  WARNING 03: negative offset ignored for Link 2018

  WARNING 03: negative offset ignored for Link 2018

  WARNING 03: negative offset ignored for Link 2019

  WARNING 03: negative offset ignored for Link 2019

  WARNING 03: negative offset ignored for Link 2020

  WARNING 03: negative offset ignored for Link 2020

  WARNING 03: negative offset ignored for Link 2021

  WARNING 03: negative offset ignored for Link 2021

  WARNING 03: negative offset ignored for Link 2022

  WARNING 03: negative offset ignored for Link 2022

  WARNING 03: negative offset ignored for Link 2023

  WARNING 03: negative offset ignored for Link 2023

  WARNING 03: negative offset ignored for Link 2024

  WARNING 03: negative offset ignored for Link 2024

  WARNING 03: negative offset ignored for Link 2025

  WARNING 03: negative offset ignored for Link 2025

  WARNING 03: negative offset ignored for Link 2026

  WARNING 03: negative offset ignored for Link 2026

  WARNING 03: negative offset ignored for Link 2027

  WARNING 03: negative offset ignored for Link 2027

  WARNING 03: negative offset ignored for Link 2028

  WARNING 03: negative offset ignored for Link 2028

  WARNING 03: negative offset ignored for Link 2029

  WARNING 03: negative offset ignored for Link 2029

  WARNING 03: negative offset ignored for Link 2030

  WARNING 03: negative offset ignored for Link 2030

  WARNING 03: negative offset ignored for Link 2031

  WARNING 03: negative offset ignored for Link 2031

  WARNING 03: negative offset ignored for Link 2033

  WARNING 03: negative offset ignored for Link 2033

  WARNING 03: negative offset ignored for Link 2034

  WARNING 03: negative offset ignored for Link 2034

  WARNING 03: negative offset ignored for Link 2035

  WARNING 03: negative offset ignored for Link 2035

  WARNING 03: negative offset ignored for Link 2036

  WARNING 03: negative offset ignored for Link 2036

  WARNING 03: negative offset ignored for Link 2037

  WARNING 03: negative offset ignored for Link 2037

  WARNING 03: negative offset ignored for Link 2038

  WARNING 03: negative offset ignored for Link 2038

  WARNING 03: negative offset ignored for Link 2039

  WARNING 03: negative offset ignored for Link 2039

  WARNING 03: negative offset ignored for Link 2040

  WARNING 03: negative offset ignored for Link 2040

  WARNING 03: negative offset ignored for Link 2041

  WARNING 03: negative offset ignored for Link 2041

  WARNING 03: negative offset ignored for Link 2042

  WARNING 03: negative offset ignored for Link 2042

  WARNING 03: negative offset ignored for Link 2043

  WARNING 03: negative offset ignored for Link 2043

  WARNING 04: minimum elevation drop used for Conduit 2043

  WARNING 03: negative offset ignored for Link 2044

  WARNING 03: negative offset ignored for Link 2044

  WARNING 03: negative offset ignored for Link 2045

  WARNING 03: negative offset ignored for Link 2045

  WARNING 03: negative offset ignored for Link 2046

  WARNING 03: negative offset ignored for Link 2046

  WARNING 03: negative offset ignored for Link 2047

  WARNING 03: negative offset ignored for Link 2047

  WARNING 03: negative offset ignored for Link 2048

  WARNING 03: negative offset ignored for Link 2048

  WARNING 03: negative offset ignored for Link 2049

  WARNING 03: negative offset ignored for Link 2049

  WARNING 03: negative offset ignored for Link 2050

  WARNING 03: negative offset ignored for Link 2050

  WARNING 03: negative offset ignored for Link 2051

  WARNING 03: negative offset ignored for Link 2051

  WARNING 03: negative offset ignored for Link 2052

  WARNING 03: negative offset ignored for Link 2052
  
  **************************        Volume         Depth
  Runoff Quantity Continuity     hectare-m            mm
  **************************     ---------       -------
  Total Precipitation ......      3473.729      1031.059
  Evaporation Loss .........         0.000         0.000
  Infiltration Loss ........         0.000         0.000
  Surface Runoff ...........      3456.668      1025.995
  Final Surface Storage ....        17.282         5.129
  Continuity Error (%) .....        -0.006
  
  
  **************************        Volume        Volume
  Flow Routing Continuity        hectare-m      10^6 ltr
  **************************     ---------     ---------
  Dry Weather Inflow .......         0.000         0.000
  Wet Weather Inflow .......      3456.614     34566.500
  Groundwater Inflow .......         0.000         0.000
  RDII Inflow ..............         0.000         0.000
  External Inflow ..........       713.888      7138.957
  External Outflow .........      4169.279     41693.221
  Internal Outflow .........         0.000         0.000
  Storage Losses ...........         0.000         0.000
  Initial Stored Volume ....         0.000         0.002
  Final Stored Volume ......         1.032        10.320
  Continuity Error (%) .....         0.005
  
  
  ***************************
  Time-Step Critical Elements
  ***************************
  Link 2030 (31.68%)
  
  
  ********************************
  Highest Flow Instability Indexes
  ********************************
  Link 2033 (8)
  Link 2034 (7)
  
  
  *************************
  Routing Time Step Summary
  *************************
  Minimum Time Step           :     2.55 sec
  Average Time Step           :    26.99 sec
  Maximum Time Step           :    30.00 sec
  Percent in Steady State     :     0.00
  Average Iterations per Step :     2.11
  
  
  ***************************
  Subcatchment Runoff Summary
  ***************************
  
  --------------------------------------------------------------------------------------------------------
                            Total      Total      Total      Total      Total       Total     Peak  Runoff
                           Precip      Runon       Evap      Infil     Runoff      Runoff   Runoff   Coeff
  Subcatchment                 mm         mm         mm         mm         mm    10^6 ltr      LPS
  --------------------------------------------------------------------------------------------------------
  1                        730.80       0.00       0.00       0.00     730.76      241.15   143.55   1.000
  2                        735.26       0.00       0.00       0.00     734.09      948.31   298.20   0.998
  3                        714.37       0.00       0.00       0.00     713.09     1002.04   303.56   0.998
  4                        695.37       0.00       0.00       0.00     694.51      698.06   232.58   0.999
  5                        701.08       0.00       0.00       0.00     701.30      124.97    82.23   1.000
  6                       1252.05       0.00       0.00       0.00    1250.86     2394.28   862.69   0.999
  7                       1231.60       0.00       0.00       0.00    1230.06     2891.02   976.42   0.999
  8                       1188.90       0.00       0.00       0.00    1187.71     2289.92   803.55   0.999
  9                       1158.73       0.00       0.00       0.00    1157.53     2236.49   777.93   0.999
  10                      1123.61       0.00       0.00       0.00    1122.92     1504.05   629.37   0.999
  11                       838.61       0.00       0.00       0.00     838.60      277.41   141.53   1.000
  12                       842.60       0.00       0.00       0.00     840.84     1560.19   463.84   0.998
  13                       829.20       0.00       0.00       0.00     828.35      841.11   302.59   0.999
  14                       802.65       0.00       0.00       0.00     801.92      735.44   265.95   0.999
  15                       797.05       0.00       0.00       0.00     796.07      911.43   310.82   0.999
  16                       862.55       0.00       0.00       0.00     862.04      258.18   100.42   0.999
  17                       852.29       0.00       0.00       0.00     848.44     1470.70   315.72   0.995
  18                       864.27       0.00       0.00       0.00     860.37     1489.30   323.20   0.995
  19                       867.13       0.00       0.00       0.00     864.58      954.15   253.66   0.997
  20                       857.04       0.00       0.00       0.00     855.28      664.99   200.96   0.998
  21                      1202.10       0.00       0.00       0.00    1192.09     1235.97   207.96   0.992
  22                      1222.80       0.00       0.00       0.00    1200.74     3106.09   411.38   0.982
  23                      1254.12       0.00       0.00       0.00    1239.29     1979.65   292.03   0.988
  24                      1297.93       0.00       0.00       0.00    1295.27      313.72    96.38   0.998
  25                      1201.30       0.00       0.00       0.00    1199.69      195.43    65.12   0.999
  26                      1254.80       0.00       0.00       0.00    1247.01      935.02   171.12   0.994
  27                      1225.08       0.00       0.00       0.00    1214.24     1363.96   218.27   0.991
  28                      1226.61       0.00       0.00       0.00    1212.53     1822.32   275.65   0.989
  29                      1148.63       0.00       0.00       0.00    1147.73      121.54    45.94   0.999
  
  
  ******************
  Node Depth Summary
  ******************
  
  ---------------------------------------------------------------------
                                 Average  Maximum  Maximum  Time of Max
                                   Depth    Depth      HGL   Occurrence
  Node                 Type       Meters   Meters   Meters  days hr:min
  ---------------------------------------------------------------------
  1001                 JUNCTION     0.03     0.09  1900.09   237  07:00
  1002                 JUNCTION     0.09     0.20  1731.59   237  07:02
  1003                 JUNCTION     0.12     0.27  1624.36   237  07:03
  1004                 JUNCTION     0.14     0.31  1517.10   237  07:04
  1005                 JUNCTION     0.14     0.33  1409.82   237  07:05
  1006                 JUNCTION     0.05     0.16  1900.16   259  03:05
  1007                 JUNCTION     0.13     0.35  1711.02   237  07:02
  1008                 JUNCTION     0.16     0.43  1587.96   237  07:04
  1009                 JUNCTION     0.18     0.49  1464.88   237  07:05
  1010                 JUNCTION     0.20     0.54  1341.80   237  07:06
  1011                 JUNCTION     0.09     0.29  1700.29   237  07:00
  1012                 JUNCTION     0.14     0.45  1552.06   237  07:01
  1013                 JUNCTION     0.16     0.53  1442.16   237  07:02
  1014                 JUNCTION     0.18     0.61  1332.25   237  07:03
  1015                 JUNCTION     0.19     0.65  1222.30   237  07:04
  1016                 JUNCTION     0.02     0.08  1700.08   262  21:01
  1017                 JUNCTION     0.06     0.15  1492.90   262  21:05
  1018                 JUNCTION     0.08     0.20  1360.20   237  07:02
  1019                 JUNCTION     0.09     0.23  1248.62   237  07:03
  1020                 JUNCTION     0.09     0.23  1137.02   237  07:04
  1021                 JUNCTION     0.00     0.00  1446.01     0  00:00
  1022                 JUNCTION     0.28     0.58  1300.58   237  07:11
  1023                 JUNCTION     0.19     0.38  1280.38   237  07:16
  1024                 JUNCTION     0.30     0.61  1270.61   237  07:21
  1025                 JUNCTION     0.28     0.59  1240.59   237  07:32
  1026                 JUNCTION     0.31     0.74  1210.74   237  07:21
  1027                 JUNCTION    11.35    21.29  1148.07   237  07:27
  1028                 JUNCTION     0.42     0.99  1105.99   237  07:07
  1029                 JUNCTION     1.88     6.11  1103.98   237  07:08
  1030                 JUNCTION     0.88     3.67  1078.20   237  07:09
  1031                 JUNCTION     3.64     5.22  1056.42   237  07:10
  1032                 JUNCTION     2.38     2.75  1030.61   237  07:11
  1033                 JUNCTION     1.31     5.76  1147.76   237  07:26
  1034                 JUNCTION     0.01     0.04  1800.04   259  07:05
  1035                 JUNCTION     0.03     0.07  1600.07   259  08:00
  1036                 JUNCTION     0.00     0.02  1800.02   237  07:00
  1037                 JUNCTION     0.01     0.03  1600.03   237  07:02
  1038                 JUNCTION     0.02     0.05  1400.05   259  07:05
  1039                 JUNCTION     0.00     0.00  1440.00     0  00:00
  1040                 JUNCTION     0.23     0.78  1340.78   259  09:00
  1041                 JUNCTION     0.02     0.10  1340.10   259  08:38
  1042                 JUNCTION     0.04     0.18  1290.18   259  09:04
  1043                 JUNCTION     0.07     0.21  1280.21   259  08:10
  1044                 JUNCTION     0.05     0.16  1240.16   259  08:14
  3001                 OUTFALL      0.13     0.80  1144.80   237  07:27
  3002                 OUTFALL      0.35     0.94  1099.94   237  07:09
  3003                 OUTFALL      0.23     0.46  1030.46   237  07:11
  3005                 OUTFALL      0.04     0.13  1142.13   259  08:14
  
  
  *******************
  Node Inflow Summary
  *******************
  
  -------------------------------------------------------------------------------------
                                  Maximum  Maximum                  Lateral       Total
                                  Lateral    Total  Time of Max      Inflow      Inflow
                                   Inflow   Inflow   Occurrence      Volume      Volume
  Node                 Type           LPS      LPS  days hr:min    10^6 ltr    10^6 ltr
  -------------------------------------------------------------------------------------
  1001                 JUNCTION    105.03   105.03   237  07:00     371.325     371.326
  1002                 JUNCTION    341.62   446.57   237  07:00    2125.758    2497.087
  1003                 JUNCTION    349.33   795.33   237  07:01    2148.025    4645.087
  1004                 JUNCTION    270.34  1064.96   237  07:02    1374.490    6019.544
  1005                 JUNCTION    212.71  1276.80   237  07:03     958.388    6977.895
  1006                 JUNCTION    148.04   148.04   259  02:59     408.110     408.110
  1007                 JUNCTION    494.31   616.96   237  07:00    2299.043    2707.177
  1008                 JUNCTION    318.82   934.18   237  07:00    1244.708    3951.814
  1009                 JUNCTION    280.15  1212.36   237  07:01    1093.906    5045.664
  1010                 JUNCTION    328.39  1538.63   237  07:02    1356.581    6402.181
  1011                 JUNCTION    866.64   866.64   237  07:00    2636.316    2636.318
  1012                 JUNCTION    981.27  1847.23   237  07:00    3188.210    5824.530
  1013                 JUNCTION    807.53  2652.17   237  07:00    2533.711    8358.203
  1014                 JUNCTION    781.91  3430.78   237  07:01    2480.795   10838.965
  1015                 JUNCTION    631.22  3994.20   237  07:01    1673.434   12512.352
  1016                 JUNCTION    150.22   150.22   262  21:00     378.736     378.736
  1017                 JUNCTION    319.85   425.37   262  21:01    1489.122    1867.878
  1018                 JUNCTION    326.32   750.29   237  07:00    1575.866    3443.714
  1019                 JUNCTION    248.35   997.86   237  07:00    1098.798    4542.483
  1020                 JUNCTION     85.60  1052.84   237  07:02     196.560    4739.005
  1021                 JUNCTION      0.00     0.00     0  00:00       0.000       0.000
  1022                 JUNCTION      0.00  1681.23   237  07:05       0.000   11953.859
  1023                 JUNCTION      0.00  1783.59   237  07:13       0.000   12292.596
  1024                 JUNCTION      0.00  1790.24   237  07:17       0.000   12323.783
  1025                 JUNCTION      0.00  1959.47   237  07:25       0.000   13093.483
  1026                 JUNCTION      0.00  3491.27   237  07:15       0.000   19552.583
  1027                 JUNCTION      0.00  3489.24   237  07:21       0.000   19580.528
  1028                 JUNCTION      0.00  4621.33   237  07:04       0.000   25891.667
  1029                 JUNCTION      0.00  4619.60   237  07:07       0.000   25891.392
  1030                 JUNCTION      0.00   172.24     1  06:55       0.000    4629.706
  1031                 JUNCTION      0.00   170.47     1  06:13       0.000    4629.550
  1032                 JUNCTION      0.00  1218.75   237  07:04       0.000    9368.331
  1033                 JUNCTION      0.00  2859.53   237  07:24       0.000    6219.497
  1034                 JUNCTION    207.96   207.96   259  07:00    1235.936    1235.935
  1035                 JUNCTION    411.38   619.12   259  07:59    3105.979    4341.901
  1036                 JUNCTION     65.12    65.12   237  07:00     195.429     195.429
  1037                 JUNCTION    171.12   236.17   237  07:00     934.997    1130.424
  1038                 JUNCTION    218.27   442.05   259  07:03    1363.928    2494.343
  1039                 JUNCTION      0.00     0.00     0  00:00       0.000       0.000
  1040                 JUNCTION    292.03   911.08   259  07:59    1979.589    6321.441
  1041                 JUNCTION     96.38   568.59   259  08:31     313.712    1658.137
  1042                 JUNCTION      0.00   402.28   259  08:38       0.000    1319.127
  1043                 JUNCTION    275.65  1105.13   259  08:01    1822.270    5604.346
  1044                 JUNCTION     45.94   931.99   259  08:06     121.544    4955.763
  3001                 OUTFALL       0.00  2858.94   237  07:27       0.000    6168.609
  3002                 OUTFALL       0.00  4452.69   237  07:09       0.000   21261.226
  3003                 OUTFALL       0.00  1215.93   237  07:11       0.000    9364.724
  3005                 OUTFALL       0.00   921.14   259  08:14       0.000    4898.471
  
  
  **********************
  Node Surcharge Summary
  **********************
  
  Surcharging occurs when water rises above the top of the highest conduit.
  ---------------------------------------------------------------------
                                               Max. Height   Min. Depth
                                   Hours       Above Crown    Below Rim
  Node                 Type      Surcharged         Meters       Meters
  ---------------------------------------------------------------------
  1027                 JUNCTION     5509.43         18.363        0.000
  1029                 JUNCTION      112.63          2.337        0.000
  1030                 JUNCTION     3728.25          2.910        0.000
  1031                 JUNCTION     7913.81          4.463        0.000
  1033                 JUNCTION      466.86          2.836        0.000
  
  
  *********************
  Node Flooding Summary
  *********************
  
  No nodes were flooded.
  
  
  ***********************
  Outfall Loading Summary
  ***********************
  
  -----------------------------------------------------------
                        Flow       Avg.      Max.       Total
                        Freq.      Flow      Flow      Volume
  Outfall Node          Pcnt.       LPS       LPS    10^6 ltr
  -----------------------------------------------------------
  3001                  49.23    418.01   2858.94    6168.609
  3002                  99.66    731.25   4452.69   21261.226
  3003                  99.65    324.56   1215.93    9364.724
  3005                  97.35    173.75    921.14    4898.471
  -----------------------------------------------------------
  System                86.47   1647.56   9300.37   41693.030
  
  
  ********************
  Link Flow Summary
  ********************
  
  -----------------------------------------------------------------------------
                                 Maximum  Time of Max   Maximum    Max/    Max/
                                  |Flow|   Occurrence   |Veloc|    Full    Full
  Link                 Type          LPS  days hr:min     m/sec    Flow   Depth
  -----------------------------------------------------------------------------
  2001                 CONDUIT    104.96   237  07:00      0.93    0.00    0.05
  2002                 CONDUIT    446.24   237  07:02      4.04    0.01    0.08
  2003                 CONDUIT    795.09   237  07:04      3.12    0.02    0.10
  2004                 CONDUIT   1064.75   237  07:04      2.67    0.02    0.11
  2005                 CONDUIT   1276.59   237  07:05      1.94    0.03    0.16
  2006                 CONDUIT    147.42   259  03:05      0.75    0.01    0.12
  2007                 CONDUIT    615.87   237  07:03      2.93    0.07    0.19
  2008                 CONDUIT    933.16   237  07:04      1.73    0.10    0.23
  2009                 CONDUIT   1211.53   237  07:05      1.91    0.13    0.26
  2010                 CONDUIT   1537.88   237  07:06      1.79    0.16    0.32
  2011                 CONDUIT    866.10   237  07:00      4.89    0.02    0.13
  2012                 CONDUIT   1845.51   237  07:02      4.71    0.06    0.17
  2013                 CONDUIT   2650.53   237  07:02      3.34    0.08    0.20
  2014                 CONDUIT   3429.39   237  07:03      3.59    0.11    0.22
  2015                 CONDUIT   3992.98   237  07:04      2.67    0.12    0.29
  2016                 CONDUIT    149.76   262  21:01      1.43    0.00    0.03
  2017                 CONDUIT    424.37   262  21:05      4.49    0.00    0.04
  2018                 CONDUIT    749.88   237  07:02      3.50    0.00    0.05
  2019                 CONDUIT    997.53   237  07:03      3.44    0.01    0.06
  2020                 CONDUIT   1052.41   237  07:04      3.14    0.01    0.37
  2021                 CONDUIT      0.00     0  00:00      0.00    0.00    0.11
  2022                 CONDUIT   1679.79   237  07:11      1.98    0.04    0.12
  2023                 CONDUIT   1783.31   237  07:16      1.97    0.02    0.12
  2024                 CONDUIT   1790.05   237  07:24      1.50    0.05    0.15
  2025                 CONDUIT   1958.21   237  07:33      1.59    0.07    0.19
  2026                 CONDUIT   3489.24   237  07:21      1.02    0.19    0.65
  2027                 CONDUIT    663.80   259  14:01      1.20    1.45    1.00
  2028                 CONDUIT   4619.60   237  07:07      0.75    0.16    0.63
  2029                 CONDUIT    172.24     1  06:55      2.97    1.07    1.00
  2030                 CONDUIT    170.47     1  06:13      0.43    0.97    1.00
  2031                 CONDUIT    167.54     1  06:33      0.38    1.04    1.00
  2033                 CONDUIT   2859.53   237  07:24      0.43    0.15    1.00
  2034                 CONDUIT   2858.94   237  07:27      1.22    1.01    0.70
  2035                 CONDUIT   4452.69   237  07:09      1.23    1.56    0.69
  2036                 CONDUIT   1215.93   237  07:11      0.32    0.15    0.54
  2037                 CONDUIT    207.94   259  07:05      1.28    0.00    0.03
  2038                 CONDUIT    619.07   259  08:00      0.59    0.01    0.21
  2039                 CONDUIT     65.08   237  07:01      0.88    0.00    0.01
  2040                 CONDUIT    236.06   237  07:02      1.85    0.00    0.02
  2041                 CONDUIT    442.04   259  07:05      1.22    0.00    0.07
  2042                 CONDUIT      0.00     0  00:00      0.00    0.00    0.10
  2043                 CONDUIT    492.51   259  08:59      0.19    1.89    0.11
  2044                 CONDUIT    402.28   259  08:38      0.49    0.00    0.03
  2045                 CONDUIT    392.84   259  09:04      0.34    0.01    0.05
  2046                 CONDUIT    895.29   259  08:11      0.82    0.01    0.05
  2047                 CONDUIT    921.14   259  08:14      1.06    0.01    0.04
  2048                 CONDUIT    436.04   258  23:44      2.33    1.04    1.00
  2049                 CONDUIT    166.23   259  08:38      1.30    0.03    0.28
  2050                 CONDUIT      8.83   259  09:58      0.29    0.99    0.95
  2051                 CONDUIT    208.74   259  08:11      0.47    0.02    0.20
  2052                 CONDUIT     10.47   259  08:14      0.32    0.83    0.87
  
  
  ***************************
  Flow Classification Summary
  ***************************
  
  -----------------------------------------------------------------------------------------
                      Adjusted    --- Fraction of Time in Flow Class ----   Avg.     Avg.  
                       /Actual         Up    Down  Sub   Sup   Up    Down   Froude   Flow  
  Conduit               Length    Dry  Dry   Dry   Crit  Crit  Crit  Crit   Number   Change
  -----------------------------------------------------------------------------------------
  2001                    1.00   0.00  0.00  0.00  0.99  0.00  0.00  0.00     0.51   0.0000
  2002                    1.00   0.00  0.00  0.00  0.00  1.00  0.00  0.00     1.21   0.0000
  2003                    1.00   0.00  0.00  0.00  0.00  1.00  0.00  0.00     1.53   0.0000
  2004                    1.00   0.00  0.00  0.00  0.00  1.00  0.00  0.00     1.65   0.0000
  2005                    1.00   0.00  0.00  0.00  0.94  0.05  0.00  0.00     0.83   0.0000
  2006                    1.00   0.00  0.00  0.00  1.00  0.00  0.00  0.00     0.29   0.0000
  2007                    1.00   0.00  0.00  0.00  0.99  0.00  0.00  0.00     0.80   0.0000
  2008                    1.00   0.00  0.00  0.00  0.99  0.01  0.00  0.00     0.88   0.0000
  2009                    1.00   0.00  0.00  0.00  0.96  0.04  0.00  0.00     0.91   0.0000
  2010                    1.00   0.00  0.00  0.00  1.00  0.00  0.00  0.00     0.64   0.0000
  2011                    1.00   0.00  0.00  0.00  0.81  0.19  0.00  0.00     0.93   0.0000
  2012                    1.00   0.00  0.00  0.00  0.00  1.00  0.00  0.00     1.19   0.0000
  2013                    1.00   0.00  0.00  0.00  0.00  1.00  0.00  0.00     1.28   0.0000
  2014                    1.00   0.00  0.00  0.00  0.00  1.00  0.00  0.00     1.40   0.0000
  2015                    1.00   0.00  0.00  0.00  0.98  0.02  0.00  0.00     0.59   0.0000
  2016                    1.00   0.00  0.00  0.00  0.84  0.16  0.00  0.00     0.83   0.0000
  2017                    1.00   0.00  0.00  0.00  0.00  1.00  0.00  0.00     1.70   0.0000
  2018                    1.00   0.00  0.00  0.00  0.00  1.00  0.00  0.00     2.12   0.0000
  2019                    1.00   0.00  0.00  0.00  0.00  1.00  0.00  0.00     2.41   0.0000
  2020                    1.00   0.00  0.00  0.00  1.00  0.00  0.00  0.00     0.02   0.0000
  2021                    1.00   0.00  1.00  0.00  0.00  0.00  0.00  0.00     0.00   0.0000
  2022                    1.00   0.00  0.00  0.00  0.42  0.58  0.00  0.00     1.00   0.0000
  2023                    1.00   0.00  0.00  0.00  0.80  0.20  0.00  0.00     0.95   0.0000
  2024                    1.00   0.00  0.00  0.00  1.00  0.00  0.00  0.00     0.68   0.0000
  2025                    1.00   0.00  0.00  0.00  1.00  0.00  0.00  0.00     0.74   0.0000
  2026                    1.00   0.00  0.00  0.00  1.00  0.00  0.00  0.00     0.13   0.0000
  2027                    1.00   0.00  0.00  0.00  1.00  0.00  0.00  0.00     0.43   0.0001
  2028                    1.00   0.00  0.00  0.00  1.00  0.00  0.00  0.00     0.10   0.0000
  2029                    1.00   0.00  0.00  0.00  1.00  0.00  0.00  0.00     0.02   0.0000
  2030                    1.00   0.00  0.00  0.00  1.00  0.00  0.00  0.00     0.02   0.0000
  2031                    1.00   0.00  0.00  0.00  1.00  0.00  0.00  0.00     0.00   0.0000
  2033                    1.00   0.00  0.39  0.00  0.61  0.00  0.00  0.00     0.00   0.0000
  2034                    1.00   0.39  0.12  0.00  0.49  0.00  0.00  0.00     0.03   0.0003
  2035                    1.00   0.00  0.00  0.00  1.00  0.00  0.00  0.00     0.10   0.0001
  2036                    1.00   0.00  0.00  0.00  1.00  0.00  0.00  0.00     0.03   0.0000
  2037                    1.00   0.00  0.00  0.00  0.09  0.90  0.00  0.00     1.29   0.0000
  2038                    1.00   0.00  0.00  0.00  0.99  0.00  0.00  0.00     0.30   0.0000
  2039                    1.00   0.00  0.00  0.00  0.58  0.42  0.00  0.00     0.93   0.0000
  2040                    1.00   0.00  0.00  0.00  0.00  0.99  0.00  0.00     2.06   0.0000
  2041                    1.00   0.00  0.00  0.00  0.92  0.07  0.00  0.00     0.85   0.0000
  2042                    1.00   0.00  0.99  0.00  0.00  0.00  0.00  0.00     0.00   0.0000
  2043                    1.00   0.00  0.00  0.00  0.99  0.00  0.00  0.00     0.04   0.0000
  2044                    1.00   0.00  0.00  0.00  0.99  0.00  0.00  0.00     0.33   0.0000
  2045                    1.00   0.00  0.00  0.00  0.99  0.00  0.00  0.00     0.14   0.0000
  2046                    1.00   0.00  0.00  0.00  0.99  0.00  0.00  0.00     0.49   0.0000
  2047                    1.00   0.02  0.00  0.00  0.97  0.00  0.00  0.00     0.74   0.0000
  2048                    1.00   0.00  0.00  0.00  0.22  0.77  0.00  0.00     1.03   0.0000
  2049                    1.00   0.00  0.00  0.00  0.99  0.00  0.00  0.00     0.23   0.0000
  2050                    1.00   0.00  0.00  0.00  0.99  0.00  0.00  0.00     0.05   0.0000
  2051                    1.00   0.00  0.00  0.00  0.99  0.00  0.00  0.00     0.13   0.0000
  2052                    1.00   0.00  0.02  0.00  0.97  0.00  0.00  0.00     0.07   0.0000
  
  
  *************************
  Conduit Surcharge Summary
  *************************
  
  ----------------------------------------------------------------------------
                                                           Hours        Hours 
                         --------- Hours Full --------   Above Full   Capacity
  Conduit                Both Ends  Upstream  Dnstream   Normal Flow   Limited
  ----------------------------------------------------------------------------
  2027                       63.71     63.71     63.81   4886.99        63.71
  2029                     3726.32   3726.32   3726.74   7915.68      3726.32
  2030                     3726.32   3726.32   3726.74      0.01         0.01
  2031                     7913.81   7913.81   7913.81   7915.09      7913.79
  2033                      466.86    466.86    467.06      0.01         0.01
  2034                        0.01      0.01      0.01      1.02         0.01
  2035                        0.01      0.01      0.01    106.91         0.01
  2043                        0.01      0.01      0.01    118.61         0.01
  2048                       68.65     68.65     68.70    232.96         0.01
  

  Analysis begun on:  Tue Nov 20 11:26:50 2018
  Analysis ended on:  Tue Nov 20 11:27:45 2018
  Total elapsed time: 00:00:55