
  EPA STORM WATER MANAGEMENT MODEL - VERSION 5.1 (Build 5.2.0.dev1)
  --------------------------------------------------------------

  
  ERROR 205: invalid keyword RULE_STEP at line 28 of [OPTION] section:
  RULE_STEP

  Analysis begun on:  Tue Aug 28 09:36:21 2018
  Analysis ended on:  Tue Aug 28 09:36:21 2018
  Total elapsed time: < 1 sec