
  EPA STORM WATER MANAGEMENT MODEL - VERSION 5.1 (Build 5.1.013)
  --------------------------------------------------------------

  Input file for Gottesacker karst system.  
  Created by Zhao Chen. 
  Modified by Chloe Fandel: 
  
  
  *********************************************************
  NOTE: The summary statistics displayed in this report are
  based on results found at every computational time step,  
  not just on results from each reporting time step.
  *********************************************************
  
  ****************
  Analysis Options
  ****************
  Flow Units ............... LPS
  Process Models:
    Rainfall/Runoff ........ YES
    RDII ................... NO
    Snowmelt ............... NO
    Groundwater ............ NO
    Flow Routing ........... YES
    Ponding Allowed ........ NO
    Water Quality .......... NO
  Infiltration Method ...... HORTON
  Flow Routing Method ...... DYNWAVE
  Surcharge Method ......... EXTRAN
  Starting Date ............ 11/14/2013 00:00:00
  Ending Date .............. 10/11/2014 00:00:00
  Antecedent Dry Days ...... 0.0
  Report Time Step ......... 01:00:00
  Wet Time Step ............ 00:30:00
  Dry Time Step ............ 01:00:00
  Routing Time Step ........ 30.00 sec
  Variable Time Step ....... YES
  Maximum Trials ........... 8
  Number of Threads ........ 4
  Head Tolerance ........... 0.001524 m
  
  
  **************************        Volume         Depth
  Runoff Quantity Continuity     hectare-m            mm
  **************************     ---------       -------
  Total Precipitation ......      2353.234       957.265
  Evaporation Loss .........         0.000         0.000
  Infiltration Loss ........         0.000         0.000
  Surface Runoff ...........      2349.290       955.660
  Final Storage ............         4.143         1.685
  Continuity Error (%) .....        -0.008
  
  
  **************************        Volume        Volume
  Flow Routing Continuity        hectare-m      10^6 ltr
  **************************     ---------     ---------
  Dry Weather Inflow .......         0.000         0.000
  Wet Weather Inflow .......      2349.289     23493.133
  Groundwater Inflow .......         0.000         0.000
  RDII Inflow ..............         0.000         0.000
  External Inflow ..........       713.887      7138.945
  External Outflow .........      3062.678     30627.095
  Flooding Loss ............         0.000         0.000
  Evaporation Loss .........         0.000         0.000
  Exfiltration Loss ........         0.000         0.000
  Initial Stored Volume ....         0.000         0.000
  Final Stored Volume ......         0.788         7.877
  Continuity Error (%) .....        -0.009
  
  
  ***************************
  Time-Step Critical Elements
  ***************************
  Link 2030 (23.21%)
  
  
  ********************************
  Highest Flow Instability Indexes
  ********************************
  Link 2033 (6)
  Link 2034 (3)
  
  
  *************************
  Routing Time Step Summary
  *************************
  Minimum Time Step           :     2.58 sec
  Average Time Step           :    27.78 sec
  Maximum Time Step           :    30.00 sec
  Percent in Steady State     :     0.30
  Average Iterations per Step :     2.19
  Percent Not Converging      :     1.92
  
  
  ***************************
  Subcatchment Runoff Summary
  ***************************
  
  ------------------------------------------------------------------------------------------------------------------------------
                            Total      Total      Total      Total     Imperv       Perv      Total       Total     Peak  Runoff
                           Precip      Runon       Evap      Infil     Runoff     Runoff     Runoff      Runoff   Runoff   Coeff
  Subcatchment                 mm         mm         mm         mm         mm         mm         mm    10^6 ltr      LPS
  ------------------------------------------------------------------------------------------------------------------------------
  1                        730.80       0.00       0.00       0.00     730.76       0.00     730.76      241.15   143.55   1.000
  2                        735.26       0.00       0.00       0.00     734.09       0.00     734.09      948.30   298.20   0.998
  3                        714.37       0.00       0.00       0.00     713.08       0.00     713.08     1002.03   303.56   0.998
  4                        695.37       0.00       0.00       0.00     694.51       0.00     694.51      698.05   232.58   0.999
  5                        701.08       0.00       0.00       0.00     701.30       0.00     701.30      124.97    82.23   1.000
  6                       1252.05       0.00       0.00       0.00    1250.85       0.00    1250.85     2394.27   862.69   0.999
  7                       1231.60       0.00       0.00       0.00    1230.05       0.00    1230.05     2891.00   976.42   0.999
  8                       1188.90       0.00       0.00       0.00    1187.70       0.00    1187.70     2289.91   803.55   0.999
  9                       1158.73       0.00       0.00       0.00    1157.53       0.00    1157.53     2236.47   777.93   0.999
  10                      1123.61       0.00       0.00       0.00    1122.92       0.00    1122.92     1504.05   629.37   0.999
  11                       838.61       0.00       0.00       0.00     838.60       0.00     838.60      277.41   141.53   1.000
  12                       842.60       0.00       0.00       0.00     840.83       0.00     840.83     1560.17   463.84   0.998
  13                       829.20       0.00       0.00       0.00     828.34       0.00     828.34      841.10   302.59   0.999
  14                       802.65       0.00       0.00       0.00     801.92       0.00     801.92      735.44   265.95   0.999
  15                       797.05       0.00       0.00       0.00     796.07       0.00     796.07      911.42   310.82   0.999
  16                       862.55       0.00       0.00       0.00     862.04       0.00     862.04      258.18   100.42   0.999
  17                       852.29       0.00       0.00       0.00     848.43       0.00     848.43     1470.68   315.72   0.995
  18                       864.27       0.00       0.00       0.00     860.36       0.00     860.36     1489.28   323.20   0.995
  19                       867.13       0.00       0.00       0.00     864.57       0.00     864.57      954.14   253.66   0.997
  20                       857.04       0.00       0.00       0.00     855.28       0.00     855.28      664.98   200.96   0.998
  
  
  ******************
  Node Depth Summary
  ******************
  
  ---------------------------------------------------------------------------------
                                 Average  Maximum  Maximum  Time of Max    Reported
                                   Depth    Depth      HGL   Occurrence   Max Depth
  Node                 Type       Meters   Meters   Meters  days hr:min      Meters
  ---------------------------------------------------------------------------------
  1001                 JUNCTION     0.03     0.09  1900.09   237  07:01        0.09
  1002                 JUNCTION     0.09     0.20  1731.59   237  07:02        0.20
  1003                 JUNCTION     0.12     0.27  1624.36   237  07:04        0.27
  1004                 JUNCTION     0.14     0.31  1517.10   237  07:05        0.31
  1005                 JUNCTION     0.15     0.33  1409.82   237  07:05        0.33
  1006                 JUNCTION     0.05     0.16  1900.16   259  03:05        0.16
  1007                 JUNCTION     0.13     0.35  1711.02   237  07:03        0.35
  1008                 JUNCTION     0.16     0.43  1587.96   237  07:04        0.43
  1009                 JUNCTION     0.18     0.49  1464.88   237  07:05        0.49
  1010                 JUNCTION     0.20     0.54  1341.80   237  07:06        0.54
  1011                 JUNCTION     0.09     0.29  1700.29   237  07:01        0.29
  1012                 JUNCTION     0.14     0.45  1552.06   237  07:02        0.45
  1013                 JUNCTION     0.17     0.53  1442.16   237  07:03        0.53
  1014                 JUNCTION     0.19     0.61  1332.25   237  07:03        0.61
  1015                 JUNCTION     0.20     0.65  1222.30   237  07:04        0.64
  1016                 JUNCTION     0.02     0.08  1700.08   262  21:01        0.08
  1017                 JUNCTION     0.06     0.15  1492.90   262  21:05        0.15
  1018                 JUNCTION     0.08     0.20  1360.20   237  07:02        0.20
  1019                 JUNCTION     0.09     0.23  1248.62   237  07:03        0.23
  1020                 JUNCTION     0.09     0.23  1137.02   237  07:04        0.23
  1021                 JUNCTION     0.00     0.00  1446.01     0  00:00        0.00
  1022                 JUNCTION     0.22     0.51  1300.51   237  07:12        0.50
  1023                 JUNCTION     0.14     0.33  1280.33   237  07:15        0.33
  1024                 JUNCTION     0.23     0.53  1270.53   237  07:20        0.53
  1025                 JUNCTION     0.21     0.48  1240.48   237  07:30        0.48
  1026                 JUNCTION     0.26     0.66  1210.66   237  07:19        0.65
  1027                 JUNCTION     6.12    20.00  1146.79   237  07:24       19.96
  1028                 JUNCTION     0.40     0.99  1105.99   237  07:07        0.98
  1029                 JUNCTION     1.82     6.10  1103.96   237  07:09        6.08
  1030                 JUNCTION     0.88     3.66  1078.20   237  07:10        3.64
  1031                 JUNCTION     3.68     5.22  1056.42   237  07:10        5.21
  1032                 JUNCTION     2.38     2.75  1030.61   237  07:11        2.74
  1033                 JUNCTION     0.60     4.61  1146.61   237  07:24        4.57
  3001                 OUTFALL      0.05     0.70  1144.70   237  07:24        0.69
  3002                 OUTFALL      0.32     0.94  1099.94   237  07:09        0.94
  3003                 OUTFALL      0.23     0.46  1030.46   237  07:12        0.46
  
  
  *******************
  Node Inflow Summary
  *******************
  
  -------------------------------------------------------------------------------------------------
                                  Maximum  Maximum                  Lateral       Total        Flow
                                  Lateral    Total  Time of Max      Inflow      Inflow     Balance
                                   Inflow   Inflow   Occurrence      Volume      Volume       Error
  Node                 Type           LPS      LPS  days hr:min    10^6 ltr    10^6 ltr     Percent
  -------------------------------------------------------------------------------------------------
  1001                 JUNCTION    105.03   105.03   237  07:00         371         371      -0.001
  1002                 JUNCTION    341.62   446.56   237  07:00    2.13e+03     2.5e+03       0.001
  1003                 JUNCTION    349.33   795.34   237  07:01    2.15e+03    4.65e+03       0.001
  1004                 JUNCTION    270.34  1064.97   237  07:03    1.37e+03    6.02e+03       0.001
  1005                 JUNCTION    212.71  1276.81   237  07:04         958    6.98e+03       0.001
  1006                 JUNCTION    148.09   148.09   259  03:00         408         408      -0.006
  1007                 JUNCTION    494.31   616.95   237  07:00     2.3e+03    2.71e+03       0.003
  1008                 JUNCTION    318.82   934.18   237  07:00    1.24e+03    3.95e+03       0.001
  1009                 JUNCTION    280.15  1212.37   237  07:01    1.09e+03    5.05e+03       0.001
  1010                 JUNCTION    328.39  1538.64   237  07:02    1.36e+03     6.4e+03       0.001
  1011                 JUNCTION    866.64   866.64   237  07:00    2.64e+03    2.64e+03       0.000
  1012                 JUNCTION    981.27  1847.12   237  07:00    3.19e+03    5.82e+03       0.001
  1013                 JUNCTION    807.53  2652.16   237  07:00    2.53e+03    8.36e+03       0.000
  1014                 JUNCTION    781.92  3430.80   237  07:01    2.48e+03    1.08e+04       0.000
  1015                 JUNCTION    631.23  3994.23   237  07:02    1.67e+03    1.25e+04      -0.000
  1016                 JUNCTION    150.22   150.22   262  21:00         379         379      -0.005
  1017                 JUNCTION    319.85   425.36   262  21:01    1.49e+03    1.87e+03       0.002
  1018                 JUNCTION    326.32   750.28   237  07:00    1.58e+03    3.44e+03       0.001
  1019                 JUNCTION    248.35   997.87   237  07:01     1.1e+03    4.54e+03       0.001
  1020                 JUNCTION     85.62  1052.85   237  07:02         197    4.74e+03       0.001
  1021                 JUNCTION      0.00     0.00     0  00:00           0           0       0.000 ltr
  1022                 JUNCTION      0.00  1276.61   237  07:06           0    6.98e+03       0.002
  1023                 JUNCTION      0.00  1274.73   237  07:12           0    6.98e+03       0.001
  1024                 JUNCTION      0.00  1274.44   237  07:15           0    6.98e+03       0.002
  1025                 JUNCTION      0.00  1273.66   237  07:23           0    6.98e+03       0.003
  1026                 JUNCTION      0.00  2800.33   237  07:13           0    1.34e+04      -0.001
  1027                 JUNCTION      0.00  2798.24   237  07:19           0    1.34e+04      -0.103
  1028                 JUNCTION      0.00  4611.87   237  07:04           0    2.36e+04       0.001
  1029                 JUNCTION      0.00  4610.14   237  07:07           0    2.36e+04       0.002
  1030                 JUNCTION      0.00   172.24     1  06:52           0    4.63e+03       0.004
  1031                 JUNCTION      0.00   170.48     1  06:10           0    4.63e+03       0.004
  1032                 JUNCTION      0.00  1218.73   237  07:05           0    9.37e+03       0.038
  1033                 JUNCTION      0.00  2178.23   237  07:21           0    2.35e+03       0.568
  3001                 OUTFALL       0.00  2177.66   237  07:24           0     2.3e+03       0.000
  3002                 OUTFALL       0.00  4443.23   237  07:09           0     1.9e+04       0.000
  3003                 OUTFALL       0.00  1215.92   237  07:12           0    9.37e+03       0.000
  
  
  **********************
  Node Surcharge Summary
  **********************
  
  Surcharging occurs when water rises above the top of the highest conduit.
  ---------------------------------------------------------------------
                                               Max. Height   Min. Depth
                                   Hours       Above Crown    Below Rim
  Node                 Type      Surcharged         Meters       Meters
  ---------------------------------------------------------------------
  1027                 JUNCTION     2951.99         17.081        0.000
  1029                 JUNCTION      111.95          2.322        0.000
  1030                 JUNCTION     3098.56          2.900        0.000
  1031                 JUNCTION     7913.85          4.458        0.000
  1033                 JUNCTION      151.02          1.686        0.000
  
  
  *********************
  Node Flooding Summary
  *********************
  
  No nodes were flooded.
  
  
  ***********************
  Outfall Loading Summary
  ***********************
  
  -----------------------------------------------------------
                         Flow       Avg       Max       Total
                         Freq      Flow      Flow      Volume
  Outfall Node           Pcnt       LPS       LPS    10^6 ltr
  -----------------------------------------------------------
  3001                  22.02    358.94   2177.66    2302.795
  3002                  99.65    662.49   4443.23   18955.319
  3003                  99.64    327.31   1215.92    9368.841
  -----------------------------------------------------------
  System                73.77   1348.74   1215.92   30626.955
  
  
  ********************
  Link Flow Summary
  ********************
  
  -----------------------------------------------------------------------------
                                 Maximum  Time of Max   Maximum    Max/    Max/
                                  |Flow|   Occurrence   |Veloc|    Full    Full
  Link                 Type          LPS  days hr:min     m/sec    Flow   Depth
  -----------------------------------------------------------------------------
  2001                 CONDUIT    104.96   237  07:01      0.93    0.00    0.05
  2002                 CONDUIT    446.24   237  07:03      4.14    0.01    0.08
  2003                 CONDUIT    795.10   237  07:04      3.17    0.02    0.10
  2004                 CONDUIT   1064.77   237  07:05      2.67    0.02    0.11
  2005                 CONDUIT   1276.61   237  07:06      2.17    0.03    0.15
  2006                 CONDUIT    147.42   259  03:05      0.75    0.01    0.12
  2007                 CONDUIT    615.87   237  07:03      3.01    0.07    0.19
  2008                 CONDUIT    933.16   237  07:04      1.73    0.10    0.23
  2009                 CONDUIT   1211.53   237  07:05      1.91    0.13    0.26
  2010                 CONDUIT   1537.90   237  07:06      1.95    0.16    0.30
  2011                 CONDUIT    866.13   237  07:01      5.01    0.02    0.13
  2012                 CONDUIT   1845.52   237  07:02      4.85    0.06    0.17
  2013                 CONDUIT   2650.55   237  07:03      3.44    0.08    0.20
  2014                 CONDUIT   3429.40   237  07:04      3.67    0.11    0.22
  2015                 CONDUIT   3993.01   237  07:04      2.67    0.12    0.29
  2016                 CONDUIT    149.77   262  21:02      1.43    0.00    0.03
  2017                 CONDUIT    424.35   262  21:05      4.68    0.00    0.04
  2018                 CONDUIT    749.89   237  07:02      3.58    0.00    0.05
  2019                 CONDUIT    997.53   237  07:03      3.44    0.01    0.06
  2020                 CONDUIT   1052.42   237  07:05      3.12    0.01    0.37
  2021                 CONDUIT      0.00     0  00:00      0.00    0.00    0.09
  2022                 CONDUIT   1274.73   237  07:12      1.84    0.03    0.11
  2023                 CONDUIT   1274.44   237  07:15      1.75    0.01    0.11
  2024                 CONDUIT   1273.66   237  07:23      1.38    0.04    0.13
  2025                 CONDUIT   1272.40   237  07:30      1.26    0.04    0.16
  2026                 CONDUIT   2798.24   237  07:19      0.84    0.15    0.63
  2027                 CONDUIT    655.12   237  19:18      1.20    1.43    1.00
  2028                 CONDUIT   4610.14   237  07:07      0.75    0.16    0.63
  2029                 CONDUIT    172.24     1  06:52      2.75    1.07    1.00
  2030                 CONDUIT    170.48     1  06:10      0.43    0.97    1.00
  2031                 CONDUIT    167.57     1  06:30      0.38    1.04    1.00
  2033                 CONDUIT   2178.23   237  07:21      0.32    0.11    1.00
  2034                 CONDUIT   2177.66   237  07:24      0.97    0.77    0.67
  2035                 CONDUIT   4443.23   237  07:09      1.23    1.56    0.69
  2036                 CONDUIT   1215.92   237  07:12      0.32    0.15    0.54
  
  
  ***************************
  Flow Classification Summary
  ***************************
  
  -------------------------------------------------------------------------------------
                      Adjusted    ---------- Fraction of Time in Flow Class ---------- 
                       /Actual         Up    Down  Sub   Sup   Up    Down  Norm  Inlet 
  Conduit               Length    Dry  Dry   Dry   Crit  Crit  Crit  Crit  Ltd   Ctrl  
  -------------------------------------------------------------------------------------
  2001                    1.00   0.00  0.00  0.00  0.99  0.00  0.00  0.00  1.00  0.00
  2002                    1.00   0.00  0.00  0.00  0.00  1.00  0.00  0.00  1.00  0.00
  2003                    1.00   0.00  0.00  0.00  0.00  1.00  0.00  0.00  1.00  0.00
  2004                    1.00   0.00  0.00  0.00  0.00  1.00  0.00  0.00  1.00  0.00
  2005                    1.00   0.00  0.00  0.00  0.01  0.99  0.00  0.00  1.00  0.00
  2006                    1.00   0.00  0.00  0.00  1.00  0.00  0.00  0.00  1.00  0.00
  2007                    1.00   0.00  0.00  0.00  0.99  0.00  0.00  0.00  1.00  0.00
  2008                    1.00   0.00  0.00  0.00  0.99  0.01  0.00  0.00  1.00  0.00
  2009                    1.00   0.00  0.00  0.00  0.96  0.04  0.00  0.00  0.99  0.00
  2010                    1.00   0.00  0.00  0.00  1.00  0.00  0.00  0.00  1.00  0.00
  2011                    1.00   0.00  0.00  0.00  0.80  0.20  0.00  0.00  1.00  0.00
  2012                    1.00   0.00  0.00  0.00  0.00  1.00  0.00  0.00  1.00  0.00
  2013                    1.00   0.00  0.00  0.00  0.00  1.00  0.00  0.00  1.00  0.00
  2014                    1.00   0.00  0.00  0.00  0.00  1.00  0.00  0.00  0.98  0.00
  2015                    1.00   0.00  0.00  0.00  0.97  0.02  0.00  0.00  1.00  0.00
  2016                    1.00   0.00  0.00  0.00  0.83  0.17  0.00  0.00  1.00  0.00
  2017                    1.00   0.00  0.00  0.00  0.00  1.00  0.00  0.00  1.00  0.00
  2018                    1.00   0.00  0.00  0.00  0.00  1.00  0.00  0.00  1.00  0.00
  2019                    1.00   0.00  0.00  0.00  0.00  1.00  0.00  0.00  0.91  0.00
  2020                    1.00   0.00  0.00  0.00  1.00  0.00  0.00  0.00  1.00  0.00
  2021                    1.00   0.00  1.00  0.00  0.00  0.00  0.00  0.00  0.00  0.00
  2022                    1.00   0.00  0.00  0.00  0.75  0.24  0.00  0.00  0.00  0.00
  2023                    1.00   0.00  0.00  0.00  0.97  0.02  0.00  0.00  1.00  0.00
  2024                    1.00   0.00  0.00  0.00  1.00  0.00  0.00  0.00  0.00  0.00
  2025                    1.00   0.00  0.00  0.00  1.00  0.00  0.00  0.00  1.00  0.00
  2026                    1.00   0.00  0.00  0.00  1.00  0.00  0.00  0.00  1.00  0.00
  2027                    1.00   0.00  0.00  0.00  1.00  0.00  0.00  0.00  0.00  0.00
  2028                    1.00   0.00  0.00  0.00  1.00  0.00  0.00  0.00  1.00  0.00
  2029                    1.00   0.00  0.00  0.00  1.00  0.00  0.00  0.00  0.00  0.00
  2030                    1.00   0.00  0.00  0.00  1.00  0.00  0.00  0.00  0.00  0.00
  2031                    1.00   0.00  0.00  0.00  1.00  0.00  0.00  0.00  0.00  0.00
  2033                    1.00   0.00  0.67  0.00  0.33  0.00  0.00  0.00  0.57  0.00
  2034                    1.00   0.67  0.11  0.00  0.22  0.00  0.00  0.00  0.56  0.00
  2035                    1.00   0.00  0.00  0.00  1.00  0.00  0.00  0.00  0.00  0.00
  2036                    1.00   0.00  0.00  0.00  1.00  0.00  0.00  0.00  0.00  0.00
  
  
  *************************
  Conduit Surcharge Summary
  *************************
  
  ----------------------------------------------------------------------------
                                                           Hours        Hours 
                         --------- Hours Full --------   Above Full   Capacity
  Conduit                Both Ends  Upstream  Dnstream   Normal Flow   Limited
  ----------------------------------------------------------------------------
  2026                        0.01      0.01   3190.98      0.01         0.01
  2027                       62.37   4079.12     62.37   2714.37        62.37
  2028                        0.01      0.01    111.95      0.01         0.01
  2029                     3096.12   7915.42   3096.12   7915.72      3096.12
  2030                     3096.13   3096.13   7913.85      0.01         0.01
  2031                     7913.85   7913.85   7916.12   7915.15      7913.84
  2033                      151.02    151.02   6858.72      0.01         0.01
  2034                        0.01      0.01   5763.48      0.01         0.01
  2035                        0.01      0.01    567.70    106.27         0.01
  

  Analysis begun on:  Thu Jun  6 12:20:06 2019
  Analysis ended on:  Thu Jun  6 12:20:49 2019
  Total elapsed time: 00:00:43