
  EPA STORM WATER MANAGEMENT MODEL - VERSION 5.1 (Build 5.1.013)
  --------------------------------------------------------------

  Template input file for Gottesacker karst system.  
  Based on input files created by Zhao Chen. 
  Modified by Chloe Fandel: 
  
  WARNING 08: elevation drop exceeds length for Conduit 36
  WARNING 08: elevation drop exceeds length for Conduit 37
  
  *********************************************************
  NOTE: The summary statistics displayed in this report are
  based on results found at every computational time step,  
  not just on results from each reporting time step.
  *********************************************************
  
  ****************
  Analysis Options
  ****************
  Flow Units ............... LPS
  Process Models:
    Rainfall/Runoff ........ YES
    RDII ................... NO
    Snowmelt ............... NO
    Groundwater ............ NO
    Flow Routing ........... YES
    Ponding Allowed ........ NO
    Water Quality .......... NO
  Infiltration Method ...... HORTON
  Flow Routing Method ...... DYNWAVE
  Surcharge Method ......... EXTRAN
  Starting Date ............ 11/14/2013 00:00:00
  Ending Date .............. 10/11/2014 00:00:00
  Antecedent Dry Days ...... 0.0
  Report Time Step ......... 01:00:00
  Wet Time Step ............ 00:30:00
  Dry Time Step ............ 01:00:00
  Routing Time Step ........ 30.00 sec
  Variable Time Step ....... YES
  Maximum Trials ........... 8
  Number of Threads ........ 4
  Head Tolerance ........... 0.001524 m
  
  
  **************************        Volume         Depth
  Runoff Quantity Continuity     hectare-m            mm
  **************************     ---------       -------
  Total Precipitation ......           nan           nan
  Evaporation Loss .........         0.000         0.000
  Infiltration Loss ........         0.000         0.000
  Surface Runoff ...........      2233.751       676.331
  Final Storage ............           nan           nan
  Continuity Error (%) .....         0.000
  
  
  **************************        Volume        Volume
  Flow Routing Continuity        hectare-m      10^6 ltr
  **************************     ---------     ---------
  Dry Weather Inflow .......         0.000         0.000
  Wet Weather Inflow .......      2233.747     22337.704
  Groundwater Inflow .......         0.000         0.000
  RDII Inflow ..............         0.000         0.000
  External Inflow ..........           nan           nan
  External Outflow .........      2884.168     28841.979
  Flooding Loss ............         0.000         0.000
  Evaporation Loss .........         0.000         0.000
  Exfiltration Loss ........         0.000         0.000
  Initial Stored Volume ....         0.000         0.000
  Final Stored Volume ......         1.466        14.661
  Continuity Error (%) .....           nan
  
  
  ***************************
  Time-Step Critical Elements
  ***************************
  Link 35 (99.93%)
  
  
  ********************************
  Highest Flow Instability Indexes
  ********************************
  All links are stable.
  
  
  *************************
  Routing Time Step Summary
  *************************
  Minimum Time Step           :     0.12 sec
  Average Time Step           :     0.50 sec
  Maximum Time Step           :    30.00 sec
  Percent in Steady State     :     0.30
  Average Iterations per Step :     2.00
  Percent Not Converging      :     0.00
  
  
  ***************************
  Subcatchment Runoff Summary
  ***************************
  
  ------------------------------------------------------------------------------------------------------------------------------
                            Total      Total      Total      Total     Imperv       Perv      Total       Total     Peak  Runoff
                           Precip      Runon       Evap      Infil     Runoff     Runoff     Runoff      Runoff   Runoff   Coeff
  Subcatchment                 mm         mm         mm         mm         mm         mm         mm    10^6 ltr      LPS
  ------------------------------------------------------------------------------------------------------------------------------
  S1                       853.49       0.00       0.00       0.00     853.61       0.00     853.61      241.15   136.12   1.000
  S2                       810.78       0.00       0.00       0.00     811.07       0.00     811.07      101.38    68.29   1.000
  S3                       851.30       0.00       0.00       0.00     851.37       0.00     851.37      278.83   153.33   1.000
  S4                       865.45       0.00       0.00       0.00     865.14       0.00     865.14     1057.64   450.38   1.000
  S5                       554.12       0.00       0.00       0.00     554.19       0.00     554.19       81.74    45.76   1.000
  S6                       841.08       0.00       0.00       0.00     841.26       0.00     841.26      166.15    99.53   1.000
  S7                       841.11       0.00       0.00       0.00     841.35       0.00     841.35      132.51    83.35   1.000
  S8                       832.15       0.00       0.00       0.00     832.09       0.00     832.09      430.61   210.83   1.000
  S9                       819.25       0.00       0.00       0.00     819.26       0.00     819.26      325.66   167.56   1.000
  S10                      851.07       0.00       0.00       0.00     851.08       0.00     851.08      372.35   192.06   1.000
  S11                     1245.05       0.00       0.00       0.00    1245.64       0.00    1245.64      214.87   150.37   1.000
  S12                     1210.99       0.00       0.00       0.00    1211.52       0.00    1211.52      221.10   152.91   1.000
  S13                     1072.91       0.00       0.00       0.00    1072.48       0.00    1072.48     1930.48   791.30   1.000
  S14                     1216.65       0.00       0.00       0.00    1216.52       0.00    1216.52     1259.10   616.59   1.000
  S15                      485.49       0.00       0.00       0.00     485.15       0.00     485.15      596.73   226.41   0.999
  S16                      741.59       0.00       0.00       0.00     741.82       0.00     741.82      109.42    82.98   1.000
  S17                      722.49       0.00       0.00       0.00     722.32       0.00     722.32      521.88   260.17   1.000
  S18                      697.97       0.00       0.00       0.00     697.78       0.00     697.78      547.76   246.20   1.000
  S19                      723.16       0.00       0.00       0.00     722.99       0.00     722.99      540.44   251.89   1.000
  S20                       70.81       0.00       0.00       0.00      70.61       0.00      70.61       66.20    17.73   0.997
  S21                       11.53       0.00       0.00       0.00      11.35       0.00      11.35       38.46     5.44   0.985
  S22                      628.74       0.00       0.00       0.00     628.60       0.00     628.60      350.45   160.73   1.000
  S23                      300.82       0.00       0.00       0.00     300.17       0.00     300.17     1096.38   328.17   0.998
  S24                      798.20       0.00       0.00       0.00     797.88       0.00     797.88      995.37   404.43   1.000
  S25                      379.04       0.00       0.00       0.00     379.03       0.00     379.03       59.70    30.31   1.000
  S26                     1147.77       0.00       0.00       0.00    1146.82       0.00    1146.82     5424.51  2031.52   0.999
  S27                     1175.94       0.00       0.00       0.00    1176.24       0.00    1176.24      382.28   240.14   1.000
  S28                     1143.29       0.00       0.00       0.00    1142.63       0.00    1142.63     3425.06  1421.08   0.999
  S29                     1112.14       0.00       0.00       0.00    1112.42       0.00    1112.42      355.98   231.69   1.000
  S30                      898.63       0.00       0.00       0.00     899.03       0.00     899.03      116.87    84.52   1.000
  S31                      438.27       0.00       0.00       0.00     438.14       0.00     438.14      200.45    90.93   1.000
  S32                      548.24       0.00       0.00       0.00     547.91       0.00     547.91      624.62   241.58   0.999
  S33                        0.00       0.00       0.00       0.00       0.00       0.00       0.00        0.00     0.00   0.000
  S34                     1123.61       0.00       0.00       0.00    1125.24       0.00    1125.24       25.32    27.80   1.001
  S35                      485.97       0.00       0.00       0.00     486.11       0.00     486.11       46.18    30.25   1.000
  S36                         nan       0.00       0.00       0.00       0.00       0.00       0.00        0.00     0.00     nan
  
  
  ******************
  Node Depth Summary
  ******************
  
  ---------------------------------------------------------------------------------
                                 Average  Maximum  Maximum  Time of Max    Reported
                                   Depth    Depth      HGL   Occurrence   Max Depth
  Node                 Type       Meters   Meters   Meters  days hr:min      Meters
  ---------------------------------------------------------------------------------
  0                    JUNCTION     0.05     0.12  1899.12   259  03:02        0.12
  1                    JUNCTION     0.08     0.16  1784.16   312  00:07        0.16
  2                    JUNCTION     0.10     0.20  1693.20   259  03:06        0.20
  3                    JUNCTION     0.09     0.23  1606.23   259  03:08        0.23
  4                    JUNCTION     0.14     0.35  1384.35   259  03:12        0.35
  5                    JUNCTION     0.07     0.15  1964.15   312  00:09        0.15
  6                    JUNCTION     0.07     0.15  1928.15   312  00:13        0.15
  7                    JUNCTION     0.08     0.19  1796.19   259  03:09        0.18
  8                    JUNCTION     0.10     0.23  1582.23   259  03:11        0.23
  9                    JUNCTION     0.11     0.27  1424.27   259  03:13        0.27
  10                   JUNCTION     0.05     0.14  1788.14   262  21:01        0.14
  11                   JUNCTION     0.06     0.18  1710.18   262  21:03        0.17
  12                   JUNCTION     0.10     0.32  1583.32   259  03:08        0.31
  13                   JUNCTION     0.12     0.38  1449.38   259  03:09        0.37
  14                   JUNCTION     0.13     0.40  1292.40   259  03:13        0.39
  15                   JUNCTION     0.05     0.11  1690.11   262  21:01        0.11
  16                   JUNCTION     0.08     0.20  1574.20   262  21:04        0.20
  17                   JUNCTION     0.09     0.23  1456.23   262  21:06        0.23
  18                   JUNCTION     0.11     0.28  1302.28   262  21:08        0.28
  19                   JUNCTION     0.11     0.30  1169.30   262  21:12        0.30
  20                   JUNCTION     0.01     0.03  1439.03   259  08:04        0.03
  21                   JUNCTION     0.45     1.11  1342.11   259  03:48        1.10
  22                   JUNCTION     0.17     0.43  1338.43   259  04:00        0.43
  23                   JUNCTION     5.33    12.12  1304.12     1  16:04        6.30
  24                   JUNCTION     0.31     0.78  1297.78   259  04:01        0.78
  25                   JUNCTION     0.29     0.83  1287.83   259  03:43        0.83
  26                   JUNCTION     0.17     0.48  1167.48   259  03:39        0.48
  27                   JUNCTION    25.31    27.96  1159.96   259  03:17       27.90
  28                   JUNCTION     0.24     0.76  1157.76   259  03:17        0.75
  29                   JUNCTION     0.02     0.07  1194.07   312  00:04        0.07
  30                   JUNCTION     0.14     0.35  1066.35   259  03:18        0.35
  31                   JUNCTION     0.19     0.50  1065.50   259  03:21        0.50
  32                   JUNCTION    26.15    26.70  1145.70   259  03:38       26.69
  33                   JUNCTION     0.14     0.38  1145.38   259  03:37        0.38
  34                   JUNCTION     0.15     0.46  1105.46   259  03:17        0.46
  35                   JUNCTION     0.00     0.00  1030.00     0  00:00        0.00
  36                   OUTFALL      0.00     0.01  1144.01   259  03:37        0.01
  37                   OUTFALL      0.15     0.47  1104.47   259  03:17        0.46
  38                   OUTFALL      0.00     0.00  1029.00     0  00:00        0.00
  
  
  *******************
  Node Inflow Summary
  *******************
  
  -------------------------------------------------------------------------------------------------
                                  Maximum  Maximum                  Lateral       Total        Flow
                                  Lateral    Total  Time of Max      Inflow      Inflow     Balance
                                   Inflow   Inflow   Occurrence      Volume      Volume       Error
  Node                 Type           LPS      LPS  days hr:min    10^6 ltr    10^6 ltr     Percent
  -------------------------------------------------------------------------------------------------
  0                    JUNCTION    167.23   167.23   259  03:00         897         897       0.001
  1                    JUNCTION     97.13   262.45   312  00:02         723    1.62e+03       0.001
  2                    JUNCTION    183.63   442.89   259  03:03         915    2.53e+03       0.001
  3                    JUNCTION    473.33   915.64   259  03:06    1.54e+03    4.07e+03       0.001
  4                    JUNCTION     66.02   980.96   259  03:08         491    4.56e+03       0.000
  5                    JUNCTION    124.10   124.10   312  00:00         673         673       0.002
  6                    JUNCTION    117.24   239.92   312  00:05         834    1.51e+03       0.002
  7                    JUNCTION    234.60   468.69   259  03:05         920    2.43e+03       0.001
  8                    JUNCTION    188.28   655.05   259  03:07         758    3.18e+03       0.001
  9                    JUNCTION    194.41   846.52   259  03:09         542    3.73e+03      -0.001
  10                   JUNCTION    153.90   153.90   262  21:00         476         476      -0.002
  11                   JUNCTION    157.96   310.72   262  21:00         506         982      -0.004
  12                   JUNCTION    807.96  1095.49   259  03:04    2.39e+03    3.37e+03       0.002
  13                   JUNCTION    620.22  1709.70   259  03:05    1.52e+03    4.89e+03      -0.000
  14                   JUNCTION    241.46  1928.15   259  03:09         906     5.8e+03       0.001
  15                   JUNCTION    102.44   102.44   262  21:00         517         517      -0.000
  16                   JUNCTION    286.04   387.79   262  21:00    1.06e+03    1.57e+03       0.002
  17                   JUNCTION    271.67   655.77   262  21:02    1.07e+03    2.65e+03       0.001
  18                   JUNCTION    268.26   900.44   262  21:05         924    3.57e+03       0.001
  19                   JUNCTION     19.74   909.17   262  21:08         117    3.69e+03       0.001
  20                   JUNCTION      5.63     5.63   259  08:00        42.4        42.4       0.031
  21                   JUNCTION    177.36  1162.25   259  03:12         698     5.3e+03       0.010
  22                   JUNCTION    334.05  1433.04   259  04:00    1.24e+03    6.55e+03       0.002
  23                   JUNCTION    424.47  1848.50   259  03:57    1.42e+03    7.97e+03       0.073
  24                   JUNCTION     40.15  1887.15   259  03:56         264    8.23e+03       0.005
  25                   JUNCTION   2033.91  4691.03   259  03:36    5.64e+03    1.76e+04       0.002
  26                   JUNCTION    244.07  4911.81   259  03:37         637    1.82e+04       0.001
  27                   JUNCTION   1424.00  5499.87   259  03:17    3.64e+03    1.75e+04       0.035
  28                   JUNCTION    234.89  5752.18   259  03:15         587    1.82e+04       0.001
  29                   JUNCTION     86.28    86.28   312  00:00         304         304      -0.015
  30                   JUNCTION    104.52   159.90   259  03:01         490         692       0.004
  31                   JUNCTION    249.87  1294.03   259  03:15         833    5.21e+03       0.002
  32                   JUNCTION      0.00  2730.44   259  03:39           0    1.01e+04       0.024
  33                   JUNCTION     32.63  2750.52   259  03:37         195    1.03e+04      -0.007
  34                   JUNCTION     42.23  5792.48   259  03:17         299    1.85e+04      -0.027
  35                   JUNCTION      0.00  1291.91   259  03:21         nan    5.21e+03         nan
  36                   OUTFALL       0.00  2750.52   259  03:37           0    1.03e+04       0.000
  37                   OUTFALL       0.00  5792.47   259  03:17           0    1.85e+04       0.000
  38                   OUTFALL       0.00     0.00     0  00:00           0           0       0.000 ltr
  
  
  **********************
  Node Surcharge Summary
  **********************
  
  Surcharging occurs when water rises above the top of the highest conduit.
  ---------------------------------------------------------------------
                                               Max. Height   Min. Depth
                                   Hours       Above Crown    Below Rim
  Node                 Type      Surcharged         Meters       Meters
  ---------------------------------------------------------------------
  23                   JUNCTION     7904.30          9.124        0.000
  27                   JUNCTION     7910.68         24.961        0.000
  32                   JUNCTION     7912.47         23.695        0.000
  
  
  *********************
  Node Flooding Summary
  *********************
  
  No nodes were flooded.
  
  
  ***********************
  Outfall Loading Summary
  ***********************
  
  -----------------------------------------------------------
                         Flow       Avg       Max       Total
                         Freq      Flow      Flow      Volume
  Outfall Node           Pcnt       LPS       LPS    10^6 ltr
  -----------------------------------------------------------
  36                    99.99    362.71   2750.52   10328.305
  37                    99.99    650.02   5792.47   18513.542
  38                     0.00      0.00      0.00       0.000
  -----------------------------------------------------------
  System                66.66   1012.72      0.00   28841.847
  
  
  ********************
  Link Flow Summary
  ********************
  
  -----------------------------------------------------------------------------
                                 Maximum  Time of Max   Maximum    Max/    Max/
                                  |Flow|   Occurrence   |Veloc|    Full    Full
  Link                 Type          LPS  days hr:min     m/sec    Flow   Depth
  -----------------------------------------------------------------------------
  0                    CONDUIT    166.87   259  03:02      4.89    0.00    0.05
  1                    CONDUIT    261.83   312  00:07      2.93    0.01    0.06
  2                    CONDUIT    442.36   259  03:06      3.24    0.01    0.07
  3                    CONDUIT    915.44   259  03:09      2.91    0.01    0.10
  4                    CONDUIT    980.23   259  03:12      1.08    0.03    0.24
  5                    CONDUIT    123.35   312  00:09      1.33    0.01    0.05
  6                    CONDUIT    239.26   312  00:13      4.41    0.01    0.06
  7                    CONDUIT    468.25   259  03:09      2.76    0.01    0.07
  8                    CONDUIT    654.40   259  03:11      2.29    0.01    0.08
  9                    CONDUIT    845.74   259  03:13      2.87    0.02    0.18
  10                   CONDUIT    152.98   262  21:01      4.23    0.00    0.05
  11                   CONDUIT    308.44   262  21:03      4.78    0.01    0.08
  12                   CONDUIT   1094.10   259  03:08      4.54    0.02    0.12
  13                   CONDUIT   1708.24   259  03:09      5.18    0.03    0.13
  14                   CONDUIT   1926.54   259  03:13      0.85    0.04    0.57
  15                   CONDUIT    101.90   262  21:01      1.73    0.00    0.05
  16                   CONDUIT    385.48   262  21:04      2.50    0.01    0.07
  17                   CONDUIT    654.37   262  21:06      2.72    0.01    0.08
  18                   CONDUIT    899.28   262  21:08      2.58    0.02    0.10
  19                   CONDUIT    907.77   262  21:12      1.64    0.02    0.13
  20                   CONDUIT      5.62   259  08:04      0.03    0.00    0.19
  21                   CONDUIT   1145.65   259  03:51      0.80    0.16    0.26
  22                   CONDUIT   1432.73   259  04:00      0.36    0.05    0.57
  23                   CONDUIT   1848.50   259  03:57      0.39    0.24    0.63
  24                   CONDUIT   1885.68   259  04:01      1.24    0.15    0.27
  25                   CONDUIT   4689.33   259  03:42      4.13    0.15    0.22
  26                   CONDUIT   2181.19   259  03:39      0.51    0.06    0.58
  27                   CONDUIT   5499.87   259  03:17      2.24    0.21    0.63
  28                   CONDUIT     28.71   312  00:04      0.42    0.00    0.14
  29                   CONDUIT     56.86   312  00:04      0.80    0.00    0.07
  30                   CONDUIT    156.31   259  03:18      0.25    0.03    0.14
  31                   CONDUIT   2730.44   259  03:39      0.64    0.06    0.58
  32                   CONDUIT   2730.44   259  03:39      0.67    0.06    0.56
  33                   CONDUIT   5751.65   259  03:17      6.29    0.12    0.20
  34                   CONDUIT   1291.91   259  03:21      4.54    0.04    0.08
  35                   CONDUIT   2750.52   259  03:37    >50.00    0.00    0.06
  36                   CONDUIT   5792.47   259  03:17    >50.00    0.05    0.15
  37                   CONDUIT      0.00     0  00:00      0.00    0.00    0.00
  
  
  ***************************
  Flow Classification Summary
  ***************************
  
  -------------------------------------------------------------------------------------
                      Adjusted    ---------- Fraction of Time in Flow Class ---------- 
                       /Actual         Up    Down  Sub   Sup   Up    Down  Norm  Inlet 
  Conduit               Length    Dry  Dry   Dry   Crit  Crit  Crit  Crit  Ltd   Ctrl  
  -------------------------------------------------------------------------------------
  0                       1.00   0.00  0.00  0.00  0.00  1.00  0.00  0.00  1.00  0.00
  1                       1.00   0.00  0.00  0.00  0.00  1.00  0.00  0.00  1.00  0.00
  2                       1.00   0.00  0.00  0.00  0.00  1.00  0.00  0.00  0.27  0.00
  3                       1.00   0.00  0.00  0.00  0.00  1.00  0.00  0.00  1.00  0.00
  4                       1.00   0.00  0.00  0.00  1.00  0.00  0.00  0.00  1.00  0.00
  5                       1.00   0.00  0.00  0.00  1.00  0.00  0.00  0.00  0.99  0.00
  6                       1.00   0.00  0.00  0.00  0.00  1.00  0.00  0.00  1.00  0.00
  7                       1.00   0.00  0.00  0.00  0.00  1.00  0.00  0.00  1.00  0.00
  8                       1.00   0.00  0.00  0.00  0.00  1.00  0.00  0.00  1.00  0.00
  9                       1.00   0.00  0.00  0.00  1.00  0.00  0.00  0.00  1.00  0.00
  10                      1.00   0.00  0.00  0.00  0.99  0.01  0.00  0.00  1.00  0.00
  11                      1.00   0.00  0.00  0.00  0.82  0.18  0.00  0.00  1.00  0.00
  12                      1.00   0.00  0.00  0.00  0.00  1.00  0.00  0.00  0.99  0.00
  13                      1.00   0.00  0.00  0.00  0.00  1.00  0.00  0.00  0.99  0.00
  14                      1.00   0.00  0.00  0.00  1.00  0.00  0.00  0.00  1.00  0.00
  15                      1.00   0.00  0.00  0.00  1.00  0.00  0.00  0.00  1.00  0.00
  16                      1.00   0.00  0.00  0.00  0.00  1.00  0.00  0.00  1.00  0.00
  17                      1.00   0.00  0.00  0.00  0.00  1.00  0.00  0.00  1.00  0.00
  18                      1.00   0.00  0.00  0.00  0.00  1.00  0.00  0.00  1.00  0.00
  19                      1.00   0.00  0.00  0.00  1.00  0.00  0.00  0.00  1.00  0.00
  20                      1.00   0.00  0.00  0.00  1.00  0.00  0.00  0.00  1.00  0.00
  21                      1.00   0.00  0.00  0.00  1.00  0.00  0.00  0.00  0.00  0.00
  22                      1.00   0.00  0.00  0.00  1.00  0.00  0.00  0.00  1.00  0.00
  23                      1.00   0.00  0.00  0.00  1.00  0.00  0.00  0.00  0.00  0.00
  24                      1.00   0.00  0.00  0.00  1.00  0.00  0.00  0.00  0.28  0.00
  25                      1.00   0.00  0.00  0.00  0.00  1.00  0.00  0.00  0.00  0.00
  26                      1.00   0.00  0.00  0.00  1.00  0.00  0.00  0.00  1.00  0.00
  27                      1.00   0.00  0.00  0.00  1.00  0.00  0.00  0.00  0.00  0.00
  28                      1.00   0.00  0.00  0.00  1.00  0.00  0.00  0.00  1.00  0.00
  29                      1.00   0.00  0.00  0.00  1.00  0.00  0.00  0.00  1.00  0.00
  30                      1.00   0.00  0.00  0.00  1.00  0.00  0.00  0.00  1.00  0.00
  31                      1.00   0.00  0.00  0.00  1.00  0.00  0.00  0.00  1.00  0.00
  32                      1.00   0.00  0.00  0.00  1.00  0.00  0.00  0.00  0.00  0.00
  33                      1.00   0.00  0.00  0.00  0.00  1.00  0.00  0.00  0.00  0.00
  34                      1.00   0.00  0.00  0.00  0.00  1.00  0.00  0.00  0.00  0.00
  35                      1.00   0.00  0.00  0.00  0.00  1.00  0.00  0.00  0.00  0.00
  36                      1.00   0.00  0.00  0.00  0.00  1.00  0.00  0.00  1.00  0.00
  37                      1.00   1.00  0.00  0.00  0.00  0.00  0.00  0.00  0.00  0.00
  
  
  *************************
  Conduit Surcharge Summary
  *************************
  
  ----------------------------------------------------------------------------
                                                           Hours        Hours 
                         --------- Hours Full --------   Above Full   Capacity
  Conduit                Both Ends  Upstream  Dnstream   Normal Flow   Limited
  ----------------------------------------------------------------------------
  14                          0.01      0.01   7910.68      0.01         0.01
  22                          0.01      0.01   7904.30      0.01         0.01
  23                          0.01      0.01   7904.30      0.01         0.01
  26                          0.01      0.01   7910.68      0.01         0.01
  27                          0.01      0.01   7910.68      0.01         0.01
  31                          0.01      0.01   7912.47      0.01         0.01
  32                          0.01      0.01   7912.47      0.01         0.01
  

  Analysis begun on:  Thu Jun  6 12:28:17 2019
  Analysis ended on:  Thu Jun  6 13:14:21 2019
  Total elapsed time: 00:46:04