
  EPA STORM WATER MANAGEMENT MODEL - VERSION 5.1 (Build 5.1.013)
  --------------------------------------------------------------

  
  ERROR 209: undefined object 1.0 at line 83 of [SUBCATCHMENT] section:
  1                1.0              1016.0           33.0     100.0    958.5666  0.25     0.0      nan      

  
  ERROR 209: undefined object 2.0 at line 84 of [SUBCATCHMENT] section:
  2                2.0              1016.0           129.18   100.0    958.5666  0.25     0.0      nan      

  
  ERROR 209: undefined object 3.0 at line 85 of [SUBCATCHMENT] section:
  3                3.0              1018.0           140.52   100.0    958.5666  0.25     0.0      nan      

  
  ERROR 209: undefined object 4.0 at line 86 of [SUBCATCHMENT] section:
  4                4.0              1019.0           100.51   100.0    958.5666  0.25     0.0      nan      

  
  ERROR 209: undefined object 5.0 at line 87 of [SUBCATCHMENT] section:
  5                5.0              1032.0           17.82    100.0    958.5666  0.25     0.0      nan      

  
  ERROR 209: undefined object 6.0 at line 88 of [SUBCATCHMENT] section:
  6                6.0              1012.0           191.41   100.0    1500.0    0.25     0.0      nan      

  
  ERROR 209: undefined object 7.0 at line 89 of [SUBCATCHMENT] section:
  7                7.0              1012.0           235.03   100.0    1500.0    0.25     0.0      nan      

  
  ERROR 209: undefined object 8.0 at line 90 of [SUBCATCHMENT] section:
  8                8.0              1014.0           192.8    100.0    1500.0    0.25     0.0      nan      

  
  ERROR 209: undefined object 9.0 at line 91 of [SUBCATCHMENT] section:
  9                9.0              1015.0           193.21   100.0    1500.0    0.25     0.0      nan      

  
  ERROR 209: undefined object 10.0 at line 92 of [SUBCATCHMENT] section:
  10               10.0             1033.0           133.94   100.0    1500.0    0.25     0.0      nan      

  
  ERROR 209: undefined object 11.0 at line 93 of [SUBCATCHMENT] section:
  11               11.0             1007.0           33.08    100.0    1007.5408 0.25     0.0      nan      

  
  ERROR 209: undefined object 12.0 at line 94 of [SUBCATCHMENT] section:
  12               12.0             1007.0           185.55   100.0    1007.5408 0.25     0.0      nan      

  
  ERROR 209: undefined object 13.0 at line 95 of [SUBCATCHMENT] section:
  13               13.0             1008.0           101.54   100.0    1007.5408 0.25     0.0      nan      

  
  ERROR 209: undefined object 14.0 at line 96 of [SUBCATCHMENT] section:
  14               14.0             1010.0           91.71    100.0    1007.5408 0.25     0.0      nan      

  
  ERROR 209: undefined object 15.0 at line 97 of [SUBCATCHMENT] section:
  15               15.0             1026.0           114.49   100.0    1007.5408 0.25     0.0      nan      

  
  ERROR 209: undefined object 16.0 at line 98 of [SUBCATCHMENT] section:
  16               16.0             1007.0           29.95    100.0    421.4552  0.25     0.0      nan      

  
  ERROR 209: undefined object 17.0 at line 99 of [SUBCATCHMENT] section:
  17               17.0             1001.0           173.34   100.0    421.4552  0.25     0.0      nan      

  
  ERROR 209: undefined object 18.0 at line 100 of [SUBCATCHMENT] section:
  18               18.0             1003.0           173.1    100.0    421.4552  0.25     0.0      nan      

  
  ERROR 209: undefined object 19.0 at line 101 of [SUBCATCHMENT] section:
  19               19.0             1005.0           110.36   100.0    421.4552  0.25     0.0      nan      

  
  ERROR 209: undefined object 20.0 at line 102 of [SUBCATCHMENT] section:
  20               20.0             1024.0           77.75    100.0    421.4552  0.25     0.0      nan      

  
  ERROR 209: undefined object 21.0 at line 103 of [SUBCATCHMENT] section:
  21               21.0             1002.0           103.68   100.0    100.0     0.25     0.0      nan      

  
  ERROR 209: undefined object 22.0 at line 104 of [SUBCATCHMENT] section:
  22               22.0             1035.0           258.68   100.0    100.0     0.25     0.0      nan      

  
  ERROR 209: undefined object 23.0 at line 105 of [SUBCATCHMENT] section:
  23               23.0             1039.0           159.74   100.0    100.0     0.25     0.0      nan      

  
  ERROR 209: undefined object 24.0 at line 106 of [SUBCATCHMENT] section:
  24               24.0             1041.0           24.22    100.0    100.0     0.25     0.0      nan      

  
  ERROR 209: undefined object 25.0 at line 107 of [SUBCATCHMENT] section:
  25               25.0             1036.0           16.29    100.0    100.0     0.25     0.0      nan      

  
  ERROR 209: undefined object 26.0 at line 108 of [SUBCATCHMENT] section:
  26               26.0             1036.0           74.98    100.0    100.0     0.25     0.0      nan      

  
  ERROR 209: undefined object 27.0 at line 109 of [SUBCATCHMENT] section:
  27               27.0             1038.0           112.33   100.0    100.0     0.25     0.0      nan      

  
  ERROR 209: undefined object 28.0 at line 110 of [SUBCATCHMENT] section:
  28               28.0             1044.0           150.29   100.0    100.0     0.25     0.0      nan      

  
  ERROR 209: undefined object 29.0 at line 111 of [SUBCATCHMENT] section:
  29               29.0             1033.0           10.59    100.0    100.0     0.25     0.0      nan      

  
  ERROR 209: undefined object nan at line 231 of [OUTFALL] section:
  3001             1144       FREE       NO               nan  

  
  ERROR 209: undefined object nan at line 232 of [OUTFALL] section:
  3002             1099       FREE       NO               nan  

  
  ERROR 209: undefined object nan at line 233 of [OUTFALL] section:
  3003             1030       FREE       NO               nan  

  
  ERROR 209: undefined object nan at line 234 of [OUTFALL] section:
  3005             1142       FREE       NO               nan  


  Analysis begun on:  Wed Dec  5 12:08:26 2018
  Analysis ended on:  Wed Dec  5 12:08:27 2018
  Total elapsed time: 00:00:01