
  EPA STORM WATER MANAGEMENT MODEL - VERSION 5.1 (Build 5.1.013)
  --------------------------------------------------------------

  Template input file for Gottesacker karst system.  
  Based on input files created by Zhao Chen. 
  Modified by Chloe Fandel: 
  
  WARNING 04: minimum elevation drop used for Conduit 2043
  
  *********************************************************
  NOTE: The summary statistics displayed in this report are
  based on results found at every computational time step,  
  not just on results from each reporting time step.
  *********************************************************
  
  ****************
  Analysis Options
  ****************
  Flow Units ............... LPS
  Process Models:
    Rainfall/Runoff ........ YES
    RDII ................... NO
    Snowmelt ............... NO
    Groundwater ............ NO
    Flow Routing ........... YES
    Ponding Allowed ........ NO
    Water Quality .......... NO
  Infiltration Method ...... HORTON
  Flow Routing Method ...... DYNWAVE
  Surcharge Method ......... EXTRAN
  Starting Date ............ 11/14/2013 00:00:00
  Ending Date .............. 10/11/2014 00:00:00
  Antecedent Dry Days ...... 0.0
  Report Time Step ......... 01:00:00
  Wet Time Step ............ 00:30:00
  Dry Time Step ............ 01:00:00
  Routing Time Step ........ 30.00 sec
  Variable Time Step ....... YES
  Maximum Trials ........... 8
  Number of Threads ........ 4
  Head Tolerance ........... 0.001524 m
  
  
  **************************        Volume         Depth
  Runoff Quantity Continuity     hectare-m            mm
  **************************     ---------       -------
  Total Precipitation ......      3473.729      1031.059
  Evaporation Loss .........         0.000         0.000
  Infiltration Loss ........         0.000         0.000
  Surface Runoff ...........      3456.632      1025.984
  Final Storage ............        17.318         5.140
  Continuity Error (%) .....        -0.006
  
  
  **************************        Volume        Volume
  Flow Routing Continuity        hectare-m      10^6 ltr
  **************************     ---------     ---------
  Dry Weather Inflow .......         0.000         0.000
  Wet Weather Inflow .......      3456.612     34566.483
  Groundwater Inflow .......         0.000         0.000
  RDII Inflow ..............         0.000         0.000
  External Inflow ..........       713.887      7138.944
  External Outflow .........      4169.455     41694.981
  Flooding Loss ............         0.000         0.000
  Evaporation Loss .........         0.000         0.000
  Exfiltration Loss ........         0.000         0.000
  Initial Stored Volume ....         0.000         0.002
  Final Stored Volume ......         1.032        10.325
  Continuity Error (%) .....         0.000
  
  
  ***************************
  Time-Step Critical Elements
  ***************************
  Link 2030 (31.52%)
  Link 2033 (2.40%)
  
  
  ********************************
  Highest Flow Instability Indexes
  ********************************
  Link 2033 (8)
  Link 2034 (7)
  
  
  *************************
  Routing Time Step Summary
  *************************
  Minimum Time Step           :     2.54 sec
  Average Time Step           :    26.88 sec
  Maximum Time Step           :    30.00 sec
  Percent in Steady State     :     0.30
  Average Iterations per Step :     2.11
  Percent Not Converging      :     1.18
  
  
  ***************************
  Subcatchment Runoff Summary
  ***************************
  
  ------------------------------------------------------------------------------------------------------------------------------
                            Total      Total      Total      Total     Imperv       Perv      Total       Total     Peak  Runoff
                           Precip      Runon       Evap      Infil     Runoff     Runoff     Runoff      Runoff   Runoff   Coeff
  Subcatchment                 mm         mm         mm         mm         mm         mm         mm    10^6 ltr      LPS
  ------------------------------------------------------------------------------------------------------------------------------
  1                        730.80       0.00       0.00       0.00     730.76       0.00     730.76      241.15   143.55   1.000
  2                        735.26       0.00       0.00       0.00     734.09       0.00     734.09      948.30   298.20   0.998
  3                        714.37       0.00       0.00       0.00     713.08       0.00     713.08     1002.03   303.56   0.998
  4                        695.37       0.00       0.00       0.00     694.51       0.00     694.51      698.05   232.58   0.999
  5                        701.08       0.00       0.00       0.00     701.30       0.00     701.30      124.97    82.23   1.000
  6                       1252.05       0.00       0.00       0.00    1250.85       0.00    1250.85     2394.27   862.69   0.999
  7                       1231.60       0.00       0.00       0.00    1230.05       0.00    1230.05     2891.00   976.42   0.999
  8                       1188.90       0.00       0.00       0.00    1187.70       0.00    1187.70     2289.91   803.55   0.999
  9                       1158.73       0.00       0.00       0.00    1157.53       0.00    1157.53     2236.47   777.93   0.999
  10                      1123.61       0.00       0.00       0.00    1122.92       0.00    1122.92     1504.05   629.37   0.999
  11                       838.61       0.00       0.00       0.00     838.60       0.00     838.60      277.41   141.53   1.000
  12                       842.60       0.00       0.00       0.00     840.83       0.00     840.83     1560.17   463.84   0.998
  13                       829.20       0.00       0.00       0.00     828.34       0.00     828.34      841.10   302.59   0.999
  14                       802.65       0.00       0.00       0.00     801.92       0.00     801.92      735.44   265.95   0.999
  15                       797.05       0.00       0.00       0.00     796.07       0.00     796.07      911.42   310.82   0.999
  16                       862.55       0.00       0.00       0.00     862.04       0.00     862.04      258.18   100.42   0.999
  17                       852.29       0.00       0.00       0.00     848.43       0.00     848.43     1470.68   315.72   0.995
  18                       864.27       0.00       0.00       0.00     860.36       0.00     860.36     1489.28   323.20   0.995
  19                       867.13       0.00       0.00       0.00     864.57       0.00     864.57      954.14   253.66   0.997
  20                       857.04       0.00       0.00       0.00     855.28       0.00     855.28      664.98   200.96   0.998
  21                      1202.10       0.00       0.00       0.00    1192.07       0.00    1192.07     1235.95   207.96   0.992
  22                      1222.80       0.00       0.00       0.00    1200.71       0.00    1200.71     3106.01   411.38   0.982
  23                      1254.12       0.00       0.00       0.00    1239.26       0.00    1239.26     1979.61   292.03   0.988
  24                      1297.93       0.00       0.00       0.00    1295.26       0.00    1295.26      313.71    96.38   0.998
  25                      1201.30       0.00       0.00       0.00    1199.68       0.00    1199.68      195.43    65.12   0.999
  26                      1254.80       0.00       0.00       0.00    1247.00       0.00    1247.00      935.00   171.12   0.994
  27                      1225.08       0.00       0.00       0.00    1214.22       0.00    1214.22     1363.94   218.27   0.991
  28                      1226.61       0.00       0.00       0.00    1212.51       0.00    1212.51     1822.29   275.65   0.989
  29                      1148.63       0.00       0.00       0.00    1147.72       0.00    1147.72      121.54    45.94   0.999
  
  
  ******************
  Node Depth Summary
  ******************
  
  ---------------------------------------------------------------------------------
                                 Average  Maximum  Maximum  Time of Max    Reported
                                   Depth    Depth      HGL   Occurrence   Max Depth
  Node                 Type       Meters   Meters   Meters  days hr:min      Meters
  ---------------------------------------------------------------------------------
  1001                 JUNCTION     0.03     0.09  1900.09   237  07:00        0.09
  1002                 JUNCTION     0.09     0.20  1731.59   237  07:02        0.20
  1003                 JUNCTION     0.12     0.27  1624.36   237  07:03        0.27
  1004                 JUNCTION     0.14     0.31  1517.10   237  07:04        0.31
  1005                 JUNCTION     0.14     0.33  1409.82   237  07:05        0.33
  1006                 JUNCTION     0.05     0.16  1900.16   259  03:05        0.16
  1007                 JUNCTION     0.13     0.35  1711.02   237  07:02        0.35
  1008                 JUNCTION     0.16     0.43  1587.96   237  07:04        0.43
  1009                 JUNCTION     0.18     0.49  1464.88   237  07:05        0.49
  1010                 JUNCTION     0.20     0.54  1341.80   237  07:06        0.54
  1011                 JUNCTION     0.09     0.29  1700.29   237  07:00        0.29
  1012                 JUNCTION     0.14     0.45  1552.06   237  07:01        0.45
  1013                 JUNCTION     0.16     0.53  1442.16   237  07:02        0.53
  1014                 JUNCTION     0.18     0.61  1332.25   237  07:03        0.61
  1015                 JUNCTION     0.19     0.65  1222.30   237  07:04        0.64
  1016                 JUNCTION     0.02     0.08  1700.08   262  21:01        0.08
  1017                 JUNCTION     0.06     0.15  1492.90   262  21:05        0.15
  1018                 JUNCTION     0.08     0.20  1360.20   237  07:02        0.20
  1019                 JUNCTION     0.09     0.23  1248.62   237  07:03        0.23
  1020                 JUNCTION     0.09     0.23  1137.02   237  07:04        0.23
  1021                 JUNCTION     0.00     0.00  1446.01     0  00:00        0.00
  1022                 JUNCTION     0.28     0.58  1300.58   237  07:11        0.57
  1023                 JUNCTION     0.19     0.38  1280.38   237  07:16        0.38
  1024                 JUNCTION     0.30     0.61  1270.61   237  07:21        0.61
  1025                 JUNCTION     0.28     0.59  1240.59   237  07:33        0.59
  1026                 JUNCTION     0.31     0.74  1210.74   237  07:21        0.73
  1027                 JUNCTION    11.37    21.29  1148.07   237  07:27       21.21
  1028                 JUNCTION     0.42     0.99  1105.99   237  07:07        0.99
  1029                 JUNCTION     1.89     6.11  1103.98   237  07:09        6.09
  1030                 JUNCTION     0.88     3.67  1078.20   237  07:09        3.65
  1031                 JUNCTION     3.64     5.22  1056.42   237  07:10        5.21
  1032                 JUNCTION     2.38     2.75  1030.61   237  07:11        2.74
  1033                 JUNCTION     1.31     5.76  1147.76   237  07:26        5.69
  1034                 JUNCTION     0.01     0.04  1800.04   259  07:05        0.04
  1035                 JUNCTION     0.03     0.07  1600.07   259  08:01        0.07
  1036                 JUNCTION     0.00     0.02  1800.02   237  07:01        0.02
  1037                 JUNCTION     0.01     0.03  1600.03   237  07:02        0.03
  1038                 JUNCTION     0.02     0.05  1400.05   259  07:05        0.05
  1039                 JUNCTION     0.00     0.00  1440.00     0  00:00        0.00
  1040                 JUNCTION     0.23     0.78  1340.78   259  09:01        0.78
  1041                 JUNCTION     0.02     0.10  1340.10   259  08:38        0.10
  1042                 JUNCTION     0.04     0.18  1290.18   259  09:04        0.18
  1043                 JUNCTION     0.07     0.21  1280.21   259  08:11        0.21
  1044                 JUNCTION     0.05     0.16  1240.16   259  08:15        0.16
  3001                 OUTFALL      0.13     0.80  1144.80   237  07:27        0.80
  3002                 OUTFALL      0.35     0.94  1099.94   237  07:09        0.94
  3003                 OUTFALL      0.23     0.46  1030.46   237  07:11        0.46
  3005                 OUTFALL      0.04     0.13  1142.13   259  08:15        0.13
  
  
  *******************
  Node Inflow Summary
  *******************
  
  -------------------------------------------------------------------------------------------------
                                  Maximum  Maximum                  Lateral       Total        Flow
                                  Lateral    Total  Time of Max      Inflow      Inflow     Balance
                                   Inflow   Inflow   Occurrence      Volume      Volume       Error
  Node                 Type           LPS      LPS  days hr:min    10^6 ltr    10^6 ltr     Percent
  -------------------------------------------------------------------------------------------------
  1001                 JUNCTION    105.03   105.03   237  07:00         371         371      -0.001
  1002                 JUNCTION    341.62   446.57   237  07:00    2.13e+03     2.5e+03       0.001
  1003                 JUNCTION    349.33   795.33   237  07:01    2.15e+03    4.65e+03       0.001
  1004                 JUNCTION    270.34  1064.96   237  07:02    1.37e+03    6.02e+03       0.001
  1005                 JUNCTION    212.71  1276.81   237  07:03         958    6.98e+03       0.000
  1006                 JUNCTION    148.09   148.09   259  03:00         408         408      -0.006
  1007                 JUNCTION    494.31   616.96   237  07:00     2.3e+03    2.71e+03       0.003
  1008                 JUNCTION    318.82   934.17   237  07:00    1.24e+03    3.95e+03       0.001
  1009                 JUNCTION    280.15  1212.37   237  07:01    1.09e+03    5.05e+03       0.001
  1010                 JUNCTION    328.39  1538.64   237  07:02    1.36e+03     6.4e+03       0.000
  1011                 JUNCTION    866.64   866.64   237  07:00    2.64e+03    2.64e+03      -0.000
  1012                 JUNCTION    981.27  1847.22   237  07:00    3.19e+03    5.82e+03       0.001
  1013                 JUNCTION    807.53  2652.14   237  07:00    2.53e+03    8.36e+03       0.000
  1014                 JUNCTION    781.92  3430.79   237  07:01    2.48e+03    1.08e+04       0.000
  1015                 JUNCTION    631.23  3994.21   237  07:02    1.67e+03    1.25e+04      -0.000
  1016                 JUNCTION    150.22   150.22   262  21:00         379         379      -0.005
  1017                 JUNCTION    319.85   425.36   262  21:01    1.49e+03    1.87e+03       0.002
  1018                 JUNCTION    326.32   750.29   237  07:00    1.58e+03    3.44e+03       0.001
  1019                 JUNCTION    248.35   997.86   237  07:00     1.1e+03    4.54e+03       0.001
  1020                 JUNCTION     85.62  1052.85   237  07:02         197    4.74e+03       0.001
  1021                 JUNCTION      0.00     0.00     0  00:00           0           0       0.000 ltr
  1022                 JUNCTION      0.00  1681.24   237  07:05           0     1.2e+04       0.002
  1023                 JUNCTION      0.00  1783.60   237  07:13           0    1.23e+04       0.001
  1024                 JUNCTION      0.00  1790.25   237  07:17           0    1.23e+04       0.002
  1025                 JUNCTION      0.00  1959.48   237  07:25           0    1.31e+04       0.002
  1026                 JUNCTION      0.00  3491.29   237  07:15           0    1.96e+04       0.001
  1027                 JUNCTION      0.00  3489.26   237  07:21           0    1.96e+04      -0.092
  1028                 JUNCTION      0.00  4621.35   237  07:04           0    2.59e+04       0.001
  1029                 JUNCTION      0.00  4619.61   237  07:07           0    2.59e+04       0.002
  1030                 JUNCTION      0.00   172.23     1  06:54           0    4.63e+03       0.003
  1031                 JUNCTION      0.00   170.46     1  06:12           0    4.63e+03       0.004
  1032                 JUNCTION      0.00  1218.75   237  07:04           0    9.37e+03       0.038
  1033                 JUNCTION      0.00  2859.56   237  07:24           0    6.22e+03       0.334
  1034                 JUNCTION    207.96   207.96   259  07:00    1.24e+03    1.24e+03       0.001
  1035                 JUNCTION    411.38   619.13   259  08:00    3.11e+03    4.34e+03       0.001
  1036                 JUNCTION     65.12    65.12   237  07:00         195         195       0.001
  1037                 JUNCTION    171.12   236.17   237  07:00         935    1.13e+03       0.001
  1038                 JUNCTION    218.27   442.05   259  07:04    1.36e+03    2.49e+03       0.000
  1039                 JUNCTION      0.00     0.00     0  00:00           0           0       0.000 ltr
  1040                 JUNCTION    292.03   911.08   259  08:00    1.98e+03    6.32e+03       0.016
  1041                 JUNCTION     96.38   568.59   259  08:32         314    1.66e+03       0.003
  1042                 JUNCTION      0.00   402.29   259  08:39           0    1.32e+03       0.008
  1043                 JUNCTION    275.65  1105.14   259  08:01    1.82e+03     5.6e+03       0.004
  1044                 JUNCTION     45.94   931.99   259  08:06         122    4.96e+03       0.002
  3001                 OUTFALL       0.00  2858.97   237  07:27           0    6.17e+03       0.000
  3002                 OUTFALL       0.00  4452.69   237  07:09           0    2.13e+04       0.000
  3003                 OUTFALL       0.00  1215.94   237  07:11           0    9.36e+03       0.000
  3005                 OUTFALL       0.00   921.14   259  08:15           0     4.9e+03       0.000
  
  
  **********************
  Node Surcharge Summary
  **********************
  
  Surcharging occurs when water rises above the top of the highest conduit.
  ---------------------------------------------------------------------
                                               Max. Height   Min. Depth
                                   Hours       Above Crown    Below Rim
  Node                 Type      Surcharged         Meters       Meters
  ---------------------------------------------------------------------
  1027                 JUNCTION     5509.47         18.363        0.000
  1029                 JUNCTION      112.63          2.337        0.000
  1030                 JUNCTION     3727.32          2.910        0.000
  1031                 JUNCTION     7913.81          4.463        0.000
  1033                 JUNCTION      466.88          2.836        0.000
  
  
  *********************
  Node Flooding Summary
  *********************
  
  No nodes were flooded.
  
  
  ***********************
  Outfall Loading Summary
  ***********************
  
  -----------------------------------------------------------
                         Flow       Avg       Max       Total
                         Freq      Flow      Flow      Volume
  Outfall Node           Pcnt       LPS       LPS    10^6 ltr
  -----------------------------------------------------------
  3001                  49.44    420.76   2858.97    6170.468
  3002                  99.66    734.09   4452.69   21261.141
  3003                  99.65    325.20   1215.94    9364.721
  3005                  97.36    174.57    921.14    4898.461
  -----------------------------------------------------------
  System                86.53   1654.62    921.14   41694.790
  
  
  ********************
  Link Flow Summary
  ********************
  
  -----------------------------------------------------------------------------
                                 Maximum  Time of Max   Maximum    Max/    Max/
                                  |Flow|   Occurrence   |Veloc|    Full    Full
  Link                 Type          LPS  days hr:min     m/sec    Flow   Depth
  -----------------------------------------------------------------------------
  2001                 CONDUIT    104.96   237  07:00      0.93    0.00    0.05
  2002                 CONDUIT    446.24   237  07:02      4.14    0.01    0.08
  2003                 CONDUIT    795.10   237  07:04      3.17    0.02    0.10
  2004                 CONDUIT   1064.75   237  07:04      2.67    0.02    0.11
  2005                 CONDUIT   1276.60   237  07:05      1.94    0.03    0.16
  2006                 CONDUIT    147.42   259  03:06      0.75    0.01    0.12
  2007                 CONDUIT    615.87   237  07:03      3.01    0.07    0.19
  2008                 CONDUIT    933.16   237  07:04      1.73    0.10    0.23
  2009                 CONDUIT   1211.53   237  07:05      1.91    0.13    0.26
  2010                 CONDUIT   1537.89   237  07:06      1.79    0.16    0.32
  2011                 CONDUIT    866.11   237  07:01      5.01    0.02    0.13
  2012                 CONDUIT   1845.51   237  07:02      4.85    0.06    0.17
  2013                 CONDUIT   2650.53   237  07:03      3.44    0.08    0.20
  2014                 CONDUIT   3429.39   237  07:03      3.67    0.11    0.22
  2015                 CONDUIT   3992.99   237  07:04      2.67    0.12    0.29
  2016                 CONDUIT    149.76   262  21:01      1.43    0.00    0.03
  2017                 CONDUIT    424.33   262  21:05      4.68    0.00    0.04
  2018                 CONDUIT    749.88   237  07:02      3.58    0.00    0.05
  2019                 CONDUIT    997.53   237  07:03      3.44    0.01    0.06
  2020                 CONDUIT   1052.42   237  07:04      3.12    0.01    0.37
  2021                 CONDUIT      0.00     0  00:00      0.00    0.00    0.11
  2022                 CONDUIT   1679.79   237  07:11      1.98    0.04    0.12
  2023                 CONDUIT   1783.31   237  07:17      1.97    0.02    0.12
  2024                 CONDUIT   1790.06   237  07:24      1.50    0.05    0.15
  2025                 CONDUIT   1958.22   237  07:33      1.59    0.07    0.19
  2026                 CONDUIT   3489.26   237  07:21      1.02    0.19    0.65
  2027                 CONDUIT    663.80   259  14:01      1.20    1.45    1.00
  2028                 CONDUIT   4619.61   237  07:07      0.75    0.16    0.63
  2029                 CONDUIT    172.23     1  06:54      2.75    1.07    1.00
  2030                 CONDUIT    170.46     1  06:12      0.43    0.97    1.00
  2031                 CONDUIT    167.55     1  06:33      0.38    1.04    1.00
  2033                 CONDUIT   2859.56   237  07:24      0.43    0.15    1.00
  2034                 CONDUIT   2858.97   237  07:27      1.22    1.01    0.70
  2035                 CONDUIT   4452.69   237  07:09      1.23    1.56    0.69
  2036                 CONDUIT   1215.94   237  07:11      0.32    0.15    0.54
  2037                 CONDUIT    207.94   259  07:05      1.28    0.00    0.03
  2038                 CONDUIT    619.07   259  08:01      0.59    0.01    0.21
  2039                 CONDUIT     65.08   237  07:01      0.88    0.00    0.01
  2040                 CONDUIT    236.06   237  07:02      1.85    0.00    0.02
  2041                 CONDUIT    442.04   259  07:06      1.22    0.00    0.07
  2042                 CONDUIT      0.00     0  00:00      0.00    0.00    0.10
  2043                 CONDUIT    492.51   259  09:00      0.19    1.89    0.11
  2044                 CONDUIT    402.29   259  08:39      0.49    0.00    0.03
  2045                 CONDUIT    392.84   259  09:05      0.34    0.01    0.05
  2046                 CONDUIT    895.29   259  08:12      0.82    0.01    0.05
  2047                 CONDUIT    921.14   259  08:15      1.06    0.01    0.04
  2048                 CONDUIT    436.04   258  23:45      2.33    1.04    1.00
  2049                 CONDUIT    166.23   259  08:39      1.30    0.03    0.28
  2050                 CONDUIT      8.83   259  09:58      0.29    0.99    0.95
  2051                 CONDUIT    208.74   259  08:11      0.47    0.02    0.20
  2052                 CONDUIT     10.47   259  08:15      0.32    0.83    0.87
  
  
  ***************************
  Flow Classification Summary
  ***************************
  
  -------------------------------------------------------------------------------------
                      Adjusted    ---------- Fraction of Time in Flow Class ---------- 
                       /Actual         Up    Down  Sub   Sup   Up    Down  Norm  Inlet 
  Conduit               Length    Dry  Dry   Dry   Crit  Crit  Crit  Crit  Ltd   Ctrl  
  -------------------------------------------------------------------------------------
  2001                    1.00   0.00  0.00  0.00  0.99  0.00  0.00  0.00  1.00  0.00
  2002                    1.00   0.00  0.00  0.00  0.00  1.00  0.00  0.00  1.00  0.00
  2003                    1.00   0.00  0.00  0.00  0.00  1.00  0.00  0.00  1.00  0.00
  2004                    1.00   0.00  0.00  0.00  0.00  1.00  0.00  0.00  1.00  0.00
  2005                    1.00   0.00  0.00  0.00  0.94  0.05  0.00  0.00  1.00  0.00
  2006                    1.00   0.00  0.00  0.00  1.00  0.00  0.00  0.00  1.00  0.00
  2007                    1.00   0.00  0.00  0.00  0.99  0.00  0.00  0.00  1.00  0.00
  2008                    1.00   0.00  0.00  0.00  0.99  0.01  0.00  0.00  1.00  0.00
  2009                    1.00   0.00  0.00  0.00  0.96  0.04  0.00  0.00  0.99  0.00
  2010                    1.00   0.00  0.00  0.00  1.00  0.00  0.00  0.00  1.00  0.00
  2011                    1.00   0.00  0.00  0.00  0.81  0.19  0.00  0.00  1.00  0.00
  2012                    1.00   0.00  0.00  0.00  0.00  1.00  0.00  0.00  1.00  0.00
  2013                    1.00   0.00  0.00  0.00  0.00  1.00  0.00  0.00  1.00  0.00
  2014                    1.00   0.00  0.00  0.00  0.00  1.00  0.00  0.00  0.98  0.00
  2015                    1.00   0.00  0.00  0.00  0.98  0.02  0.00  0.00  1.00  0.00
  2016                    1.00   0.00  0.00  0.00  0.84  0.16  0.00  0.00  1.00  0.00
  2017                    1.00   0.00  0.00  0.00  0.00  1.00  0.00  0.00  1.00  0.00
  2018                    1.00   0.00  0.00  0.00  0.00  1.00  0.00  0.00  1.00  0.00
  2019                    1.00   0.00  0.00  0.00  0.00  1.00  0.00  0.00  0.91  0.00
  2020                    1.00   0.00  0.00  0.00  1.00  0.00  0.00  0.00  1.00  0.00
  2021                    1.00   0.00  1.00  0.00  0.00  0.00  0.00  0.00  0.00  0.00
  2022                    1.00   0.00  0.00  0.00  0.42  0.58  0.00  0.00  0.00  0.00
  2023                    1.00   0.00  0.00  0.00  0.80  0.20  0.00  0.00  1.00  0.00
  2024                    1.00   0.00  0.00  0.00  1.00  0.00  0.00  0.00  0.00  0.00
  2025                    1.00   0.00  0.00  0.00  1.00  0.00  0.00  0.00  1.00  0.00
  2026                    1.00   0.00  0.00  0.00  1.00  0.00  0.00  0.00  1.00  0.00
  2027                    1.00   0.00  0.00  0.00  1.00  0.00  0.00  0.00  0.00  0.00
  2028                    1.00   0.00  0.00  0.00  1.00  0.00  0.00  0.00  1.00  0.00
  2029                    1.00   0.00  0.00  0.00  1.00  0.00  0.00  0.00  0.00  0.00
  2030                    1.00   0.00  0.00  0.00  1.00  0.00  0.00  0.00  0.00  0.00
  2031                    1.00   0.00  0.00  0.00  1.00  0.00  0.00  0.00  0.00  0.00
  2033                    1.00   0.00  0.39  0.00  0.61  0.00  0.00  0.00  0.29  0.00
  2034                    1.00   0.39  0.12  0.00  0.49  0.00  0.00  0.00  0.37  0.00
  2035                    1.00   0.00  0.00  0.00  1.00  0.00  0.00  0.00  0.00  0.00
  2036                    1.00   0.00  0.00  0.00  1.00  0.00  0.00  0.00  0.00  0.00
  2037                    1.00   0.00  0.00  0.00  0.09  0.90  0.00  0.00  0.99  0.00
  2038                    1.00   0.00  0.00  0.00  0.99  0.00  0.00  0.00  0.99  0.00
  2039                    1.00   0.00  0.00  0.00  0.58  0.42  0.00  0.00  0.99  0.00
  2040                    1.00   0.00  0.00  0.00  0.00  0.99  0.00  0.00  0.99  0.00
  2041                    1.00   0.00  0.00  0.00  0.92  0.08  0.00  0.00  0.99  0.00
  2042                    1.00   0.00  0.99  0.00  0.00  0.00  0.00  0.00  0.00  0.00
  2043                    1.00   0.00  0.00  0.00  0.99  0.00  0.00  0.00  0.00  0.00
  2044                    1.00   0.00  0.00  0.00  0.99  0.00  0.00  0.00  0.99  0.00
  2045                    1.00   0.00  0.00  0.00  0.99  0.00  0.00  0.00  0.99  0.00
  2046                    1.00   0.00  0.00  0.00  0.99  0.00  0.00  0.00  0.03  0.00
  2047                    1.00   0.02  0.00  0.00  0.97  0.00  0.00  0.00  0.00  0.00
  2048                    1.00   0.00  0.00  0.00  0.22  0.77  0.00  0.00  0.92  0.00
  2049                    1.00   0.00  0.00  0.00  0.99  0.00  0.00  0.00  0.99  0.00
  2050                    1.00   0.00  0.00  0.00  0.99  0.00  0.00  0.00  0.99  0.00
  2051                    1.00   0.00  0.00  0.00  0.99  0.00  0.00  0.00  0.99  0.00
  2052                    1.00   0.00  0.02  0.00  0.97  0.00  0.00  0.00  0.99  0.00
  
  
  *************************
  Conduit Surcharge Summary
  *************************
  
  ----------------------------------------------------------------------------
                                                           Hours        Hours 
                         --------- Hours Full --------   Above Full   Capacity
  Conduit                Both Ends  Upstream  Dnstream   Normal Flow   Limited
  ----------------------------------------------------------------------------
  2026                        0.01      0.01   5692.79      0.01         0.01
  2027                       63.73   6109.10     63.73   4886.97        63.73
  2028                        0.01      0.01    112.63      0.01         0.01
  2029                     3725.43   7915.37   3725.43   7915.67      3725.43
  2030                     3725.43   3725.43   7913.81      0.01         0.01
  2031                     7913.81   7913.81   7916.12   7915.09      7913.79
  2033                      466.87    466.87   6861.96      0.01         0.01
  2034                        0.01      0.01   6764.35      1.02         0.01
  2035                        0.01      0.01    578.14    106.92         0.01
  2043                        0.01      0.01      0.01    118.57         0.01
  2048                       68.67    234.43     92.15    233.00         0.01
  2050                        0.01      0.01   7021.03      0.01         0.01
  2052                        0.01      0.01   6861.94      0.01         0.01
  

  Analysis begun on:  Mon Dec  3 13:26:46 2018
  Analysis ended on:  Mon Dec  3 13:27:51 2018
  Total elapsed time: 00:01:05