
  EPA STORM WATER MANAGEMENT MODEL - VERSION 5.1 (Build 5.1.013)
  --------------------------------------------------------------

  Template input file for Gottesacker karst system.  
  Based on input files created by Zhao Chen. 
  Modified by Chloe Fandel: 
  
  WARNING 04: minimum elevation drop used for Conduit 2043
  
  *********************************************************
  NOTE: The summary statistics displayed in this report are
  based on results found at every computational time step,  
  not just on results from each reporting time step.
  *********************************************************
  
  ****************
  Analysis Options
  ****************
  Flow Units ............... LPS
  Process Models:
    Rainfall/Runoff ........ YES
    RDII ................... NO
    Snowmelt ............... NO
    Groundwater ............ NO
    Flow Routing ........... YES
    Ponding Allowed ........ NO
    Water Quality .......... NO
  Infiltration Method ...... HORTON
  Flow Routing Method ...... DYNWAVE
  Surcharge Method ......... EXTRAN
  Starting Date ............ 11/14/2013 00:00:00
  Ending Date .............. 10/11/2014 00:00:00
  Antecedent Dry Days ...... 0.0
  Report Time Step ......... 01:00:00
  Wet Time Step ............ 00:30:00
  Dry Time Step ............ 01:00:00
  Routing Time Step ........ 30.00 sec
  Variable Time Step ....... YES
  Maximum Trials ........... 8
  Number of Threads ........ 4
  Head Tolerance ........... 0.001524 m
  
  
  **************************        Volume         Depth
  Runoff Quantity Continuity     hectare-m            mm
  **************************     ---------       -------
  Total Precipitation ......      3473.729      1031.059
  Evaporation Loss .........         0.000         0.000
  Infiltration Loss ........         0.000         0.000
  Surface Runoff ...........      3456.632      1025.984
  Final Storage ............        17.318         5.140
  Continuity Error (%) .....        -0.006
  
  
  **************************        Volume        Volume
  Flow Routing Continuity        hectare-m      10^6 ltr
  **************************     ---------     ---------
  Dry Weather Inflow .......         0.000         0.000
  Wet Weather Inflow .......      3456.614     34566.497
  Groundwater Inflow .......         0.000         0.000
  RDII Inflow ..............         0.000         0.000
  External Inflow ..........       713.887      7138.944
  External Outflow .........      4169.549     41695.927
  Flooding Loss ............         0.000         0.000
  Evaporation Loss .........         0.000         0.000
  Exfiltration Loss ........         0.000         0.000
  Initial Stored Volume ....         0.000         0.002
  Final Stored Volume ......         1.021        10.213
  Continuity Error (%) .....        -0.002
  
  
  ***************************
  Time-Step Critical Elements
  ***************************
  Link 2030 (32.98%)
  Link 2033 (2.06%)
  
  
  ********************************
  Highest Flow Instability Indexes
  ********************************
  Link 2033 (8)
  Link 2034 (7)
  Link 2047 (2)
  
  
  *************************
  Routing Time Step Summary
  *************************
  Minimum Time Step           :     2.58 sec
  Average Time Step           :    26.79 sec
  Maximum Time Step           :    30.00 sec
  Percent in Steady State     :     0.30
  Average Iterations per Step :     2.10
  Percent Not Converging      :     1.06
  
  
  ***************************
  Subcatchment Runoff Summary
  ***************************
  
  ------------------------------------------------------------------------------------------------------------------------------
                            Total      Total      Total      Total     Imperv       Perv      Total       Total     Peak  Runoff
                           Precip      Runon       Evap      Infil     Runoff     Runoff     Runoff      Runoff   Runoff   Coeff
  Subcatchment                 mm         mm         mm         mm         mm         mm         mm    10^6 ltr      LPS
  ------------------------------------------------------------------------------------------------------------------------------
  1                        730.80       0.00       0.00       0.00     730.76       0.00     730.76      241.15   143.55   1.000
  2                        735.26       0.00       0.00       0.00     734.09       0.00     734.09      948.30   298.20   0.998
  3                        714.37       0.00       0.00       0.00     713.08       0.00     713.08     1002.03   303.56   0.998
  4                        695.37       0.00       0.00       0.00     694.51       0.00     694.51      698.05   232.58   0.999
  5                        701.08       0.00       0.00       0.00     701.30       0.00     701.30      124.97    82.23   1.000
  6                       1252.05       0.00       0.00       0.00    1250.85       0.00    1250.85     2394.27   862.69   0.999
  7                       1231.60       0.00       0.00       0.00    1230.05       0.00    1230.05     2891.00   976.42   0.999
  8                       1188.90       0.00       0.00       0.00    1187.70       0.00    1187.70     2289.91   803.55   0.999
  9                       1158.73       0.00       0.00       0.00    1157.53       0.00    1157.53     2236.47   777.93   0.999
  10                      1123.61       0.00       0.00       0.00    1122.92       0.00    1122.92     1504.05   629.37   0.999
  11                       838.61       0.00       0.00       0.00     838.60       0.00     838.60      277.41   141.53   1.000
  12                       842.60       0.00       0.00       0.00     840.83       0.00     840.83     1560.17   463.84   0.998
  13                       829.20       0.00       0.00       0.00     828.34       0.00     828.34      841.10   302.59   0.999
  14                       802.65       0.00       0.00       0.00     801.92       0.00     801.92      735.44   265.95   0.999
  15                       797.05       0.00       0.00       0.00     796.07       0.00     796.07      911.42   310.82   0.999
  16                       862.55       0.00       0.00       0.00     862.04       0.00     862.04      258.18   100.42   0.999
  17                       852.29       0.00       0.00       0.00     848.43       0.00     848.43     1470.68   315.72   0.995
  18                       864.27       0.00       0.00       0.00     860.36       0.00     860.36     1489.28   323.20   0.995
  19                       867.13       0.00       0.00       0.00     864.57       0.00     864.57      954.14   253.66   0.997
  20                       857.04       0.00       0.00       0.00     855.28       0.00     855.28      664.98   200.96   0.998
  21                      1202.10       0.00       0.00       0.00    1192.07       0.00    1192.07     1235.95   207.96   0.992
  22                      1222.80       0.00       0.00       0.00    1200.71       0.00    1200.71     3106.01   411.38   0.982
  23                      1254.12       0.00       0.00       0.00    1239.26       0.00    1239.26     1979.61   292.03   0.988
  24                      1297.93       0.00       0.00       0.00    1295.26       0.00    1295.26      313.71    96.38   0.998
  25                      1201.30       0.00       0.00       0.00    1199.68       0.00    1199.68      195.43    65.12   0.999
  26                      1254.80       0.00       0.00       0.00    1247.00       0.00    1247.00      935.00   171.12   0.994
  27                      1225.08       0.00       0.00       0.00    1214.22       0.00    1214.22     1363.94   218.27   0.991
  28                      1226.61       0.00       0.00       0.00    1212.51       0.00    1212.51     1822.29   275.65   0.989
  29                      1148.63       0.00       0.00       0.00    1147.72       0.00    1147.72      121.54    45.94   0.999
  
  
  ******************
  Node Depth Summary
  ******************
  
  ---------------------------------------------------------------------------------
                                 Average  Maximum  Maximum  Time of Max    Reported
                                   Depth    Depth      HGL   Occurrence   Max Depth
  Node                 Type       Meters   Meters   Meters  days hr:min      Meters
  ---------------------------------------------------------------------------------
  1001                 JUNCTION     0.06     0.15  1900.15   237  07:01        0.15
  1002                 JUNCTION     0.10     0.22  1731.61   259  07:05        0.22
  1003                 JUNCTION     0.13     0.28  1624.37   237  07:04        0.28
  1004                 JUNCTION     0.14     0.28  1517.07   237  07:07        0.28
  1005                 JUNCTION     0.15     0.32  1409.81   237  07:07        0.32
  1006                 JUNCTION     0.03     0.04  1900.04   291  16:00        0.04
  1007                 JUNCTION     0.14     0.37  1711.04   237  07:01        0.37
  1008                 JUNCTION     0.16     0.45  1587.98   237  07:03        0.45
  1009                 JUNCTION     0.17     0.45  1464.85   237  07:07        0.45
  1010                 JUNCTION     0.19     0.50  1341.76   237  07:07        0.50
  1011                 JUNCTION     0.03     0.05  1700.05     1  02:00        0.05
  1012                 JUNCTION     0.14     0.45  1552.06   237  07:01        0.45
  1013                 JUNCTION     0.14     0.45  1442.08   237  07:03        0.45
  1014                 JUNCTION     0.17     0.53  1332.18   237  07:03        0.53
  1015                 JUNCTION     0.18     0.60  1222.25   237  07:03        0.60
  1016                 JUNCTION     0.04     0.13  1700.13   237  07:00        0.13
  1017                 JUNCTION     0.06     0.15  1492.90   262  21:06        0.15
  1018                 JUNCTION     0.08     0.20  1360.20   237  07:02        0.20
  1019                 JUNCTION     0.09     0.23  1248.62   237  07:03        0.23
  1020                 JUNCTION     0.09     0.23  1137.01   237  07:06        0.23
  1021                 JUNCTION     0.00     0.00  1446.01     0  00:00        0.00
  1022                 JUNCTION     0.28     0.56  1300.56   237  07:17        0.56
  1023                 JUNCTION     0.18     0.37  1280.37   237  07:22        0.37
  1024                 JUNCTION     0.30     0.63  1270.63   237  07:23        0.62
  1025                 JUNCTION     0.28     0.59  1240.59   237  07:34        0.58
  1026                 JUNCTION     0.31     0.74  1210.74   237  07:19        0.74
  1027                 JUNCTION    11.98    22.49  1149.28   237  07:18       22.44
  1028                 JUNCTION     0.41     0.92  1105.92   237  07:07        0.92
  1029                 JUNCTION     1.85     5.27  1103.14   237  07:08        5.26
  1030                 JUNCTION     0.86     3.13  1077.66   237  07:09        3.11
  1031                 JUNCTION     3.63     4.93  1056.13   237  07:10        4.92
  1032                 JUNCTION     2.38     2.74  1030.61   237  07:11        2.74
  1033                 JUNCTION     1.46     6.95  1148.95   237  07:18        6.91
  1034                 JUNCTION     0.00     0.00  1800.00     0  00:00        0.00
  1035                 JUNCTION     0.02     0.05  1600.05   259  08:01        0.05
  1036                 JUNCTION     0.01     0.04  1800.04   237  07:01        0.04
  1037                 JUNCTION     0.01     0.03  1600.03   237  07:03        0.03
  1038                 JUNCTION     0.02     0.05  1400.05   259  07:06        0.05
  1039                 JUNCTION     0.03     0.08  1440.08   259  08:02        0.08
  1040                 JUNCTION     0.20     0.60  1340.60   259  09:57        0.60
  1041                 JUNCTION     0.02     0.07  1340.07   259  09:12        0.07
  1042                 JUNCTION     0.04     0.14  1290.14   259  09:43        0.14
  1043                 JUNCTION     0.05     0.14  1280.14   259  08:19        0.14
  1044                 JUNCTION     0.05     0.15  1240.15   259  08:19        0.15
  3001                 OUTFALL      0.14     0.89  1144.89   237  07:18        0.89
  3002                 OUTFALL      0.34     0.88  1099.88   237  07:09        0.88
  3003                 OUTFALL      0.23     0.46  1030.46   237  07:11        0.46
  3005                 OUTFALL      0.04     0.13  1142.13   259  08:19        0.13
  
  
  *******************
  Node Inflow Summary
  *******************
  
  -------------------------------------------------------------------------------------------------
                                  Maximum  Maximum                  Lateral       Total        Flow
                                  Lateral    Total  Time of Max      Inflow      Inflow     Balance
                                   Inflow   Inflow   Occurrence      Volume      Volume       Error
  Node                 Type           LPS      LPS  days hr:min    10^6 ltr    10^6 ltr     Percent
  -------------------------------------------------------------------------------------------------
  1001                 JUNCTION    320.33   320.33   237  07:00    1.58e+03    1.58e+03       0.000
  1002                 JUNCTION    239.20   535.60   259  07:01    1.89e+03    3.47e+03       0.001
  1003                 JUNCTION    349.33   882.96   237  07:02    2.15e+03    5.62e+03       0.001
  1004                 JUNCTION     20.77   899.49   237  07:05         420    6.04e+03       0.001
  1005                 JUNCTION    265.41  1163.74   237  07:06    1.25e+03    7.29e+03       0.000
  1006                 JUNCTION      6.75     6.75   291  15:00         131         131       0.004
  1007                 JUNCTION    712.05   717.54   237  07:00    2.83e+03    2.97e+03       0.002
  1008                 JUNCTION    318.82  1034.67   237  07:00    1.24e+03    4.21e+03       0.001
  1009                 JUNCTION     17.38  1047.79   237  07:04         358    4.57e+03       0.002
  1010                 JUNCTION    283.52  1328.47   237  07:04    1.18e+03    5.75e+03       0.000
  1011                 JUNCTION     22.72    22.72     1  01:00         242         242      -0.001
  1012                 JUNCTION   1843.96  1847.91   237  07:00    5.58e+03    5.82e+03       0.001
  1013                 JUNCTION     22.89  1849.94   237  07:01         244    6.07e+03       0.000
  1014                 JUNCTION    807.54  2654.30   237  07:00    2.53e+03     8.6e+03       0.000
  1015                 JUNCTION    780.70  3431.72   237  07:01    2.41e+03     1.1e+04      -0.000
  1016                 JUNCTION    402.84   402.84   237  07:00    1.33e+03    1.33e+03       0.000
  1017                 JUNCTION     26.53   425.33   262  21:02         541    1.87e+03       0.000
  1018                 JUNCTION    326.32   750.10   237  07:00    1.58e+03    3.44e+03       0.001
  1019                 JUNCTION    248.35   997.67   237  07:00     1.1e+03    4.54e+03       0.001
  1020                 JUNCTION      3.53  1000.21   237  07:03        71.6    4.61e+03       0.001
  1021                 JUNCTION      0.00     0.00     0  00:00           0           0       0.000 ltr
  1022                 JUNCTION      0.00  1573.98   237  07:10           0    1.14e+04       0.002
  1023                 JUNCTION      0.00  1630.02   237  07:19           0    1.17e+04       0.001
  1024                 JUNCTION    200.96  1832.09   237  07:19         665    1.23e+04       0.002
  1025                 JUNCTION      0.00  1913.66   237  07:26           0    1.27e+04       0.002
  1026                 JUNCTION    310.82  3543.06   237  07:14         911    1.94e+04       0.001
  1027                 JUNCTION      0.00  3540.98   237  07:20           0    1.97e+04      -0.090
  1028                 JUNCTION      0.00  4068.37   237  07:04           0    2.45e+04       0.001
  1029                 JUNCTION      0.00  4066.78   237  07:07           0    2.45e+04       0.003
  1030                 JUNCTION      0.00   172.23     1  06:54           0    4.63e+03       0.003
  1031                 JUNCTION      0.00   170.46     1  06:12           0    4.63e+03       0.004
  1032                 JUNCTION     82.23  1217.20   237  07:04         125    9.37e+03       0.038
  1033                 JUNCTION    675.32  3494.80   237  07:14    1.63e+03     7.8e+03       0.251
  1034                 JUNCTION      0.00     0.00     0  00:00           0           0       0.000 ltr
  1035                 JUNCTION    411.38   411.38   259  08:00    3.11e+03    3.11e+03       0.001
  1036                 JUNCTION    236.24   236.24   237  07:00    1.13e+03    1.13e+03       0.001
  1037                 JUNCTION      0.00   236.14   237  07:01           0    1.13e+03       0.000
  1038                 JUNCTION    218.27   442.03   259  07:04    1.36e+03    2.49e+03       0.000
  1039                 JUNCTION    292.03   292.03   259  08:00    1.98e+03    1.98e+03       0.003
  1040                 JUNCTION      0.00   703.16   259  08:01           0    5.09e+03       0.019
  1041                 JUNCTION     96.38   354.77   259  09:04         314    1.27e+03       0.004
  1042                 JUNCTION      0.00   259.62   259  09:13           0    1.03e+03       0.010
  1043                 JUNCTION      0.00   686.28   259  08:04           0     3.5e+03       0.004
  1044                 JUNCTION    275.65   863.94   259  08:08    1.82e+03    4.97e+03      -0.003
  3001                 OUTFALL       0.00  3493.92   237  07:18           0    7.51e+03       0.000
  3002                 OUTFALL       0.00  3900.97   237  07:09           0    1.99e+04       0.000
  3003                 OUTFALL       0.00  1214.60   237  07:11           0    9.36e+03       0.000
  3005                 OUTFALL       0.00   853.60   259  08:19           0    4.92e+03       0.000
  
  
  **********************
  Node Surcharge Summary
  **********************
  
  Surcharging occurs when water rises above the top of the highest conduit.
  ---------------------------------------------------------------------
                                               Max. Height   Min. Depth
                                   Hours       Above Crown    Below Rim
  Node                 Type      Surcharged         Meters       Meters
  ---------------------------------------------------------------------
  1027                 JUNCTION     5713.32         19.569        0.000
  1029                 JUNCTION       78.67          1.499        0.000
  1030                 JUNCTION     3615.93          2.366        0.000
  1031                 JUNCTION     7913.81          4.168        0.000
  1033                 JUNCTION      650.51          4.032        0.000
  
  
  *********************
  Node Flooding Summary
  *********************
  
  No nodes were flooded.
  
  
  ***********************
  Outfall Loading Summary
  ***********************
  
  -----------------------------------------------------------
                         Flow       Avg       Max       Total
                         Freq      Flow      Flow      Volume
  Outfall Node           Pcnt       LPS       LPS    10^6 ltr
  -----------------------------------------------------------
  3001                  53.22    464.28   3493.92    7505.556
  3002                  99.66    685.38   3900.97   19910.673
  3003                  99.65    323.96   1214.60    9363.576
  3005                  95.97    177.05    853.60    4915.931
  -----------------------------------------------------------
  System                87.12   1650.67    853.60   41695.736
  
  
  ********************
  Link Flow Summary
  ********************
  
  -----------------------------------------------------------------------------
                                 Maximum  Time of Max   Maximum    Max/    Max/
                                  |Flow|   Occurrence   |Veloc|    Full    Full
  Link                 Type          LPS  days hr:min     m/sec    Flow   Depth
  -----------------------------------------------------------------------------
  2001                 CONDUIT    320.21   237  07:01      1.76    0.01    0.07
  2002                 CONDUIT    535.55   259  07:05      4.14    0.01    0.09
  2003                 CONDUIT    882.81   237  07:05      3.17    0.02    0.10
  2004                 CONDUIT    899.33   237  07:07      2.48    0.02    0.10
  2005                 CONDUIT   1163.60   237  07:08      1.86    0.03    0.15
  2006                 CONDUIT      6.75   291  16:00      0.26    0.00    0.10
  2007                 CONDUIT    716.23   237  07:02      3.01    0.08    0.21
  2008                 CONDUIT   1033.58   237  07:04      1.95    0.11    0.23
  2009                 CONDUIT   1047.02   237  07:07      1.83    0.11    0.24
  2010                 CONDUIT   1327.93   237  07:07      1.62    0.14    0.31
  2011                 CONDUIT     22.72     1  02:01      5.01    0.00    0.08
  2012                 CONDUIT   1845.96   237  07:01      4.85    0.06    0.16
  2013                 CONDUIT   1848.72   237  07:03      3.44    0.06    0.17
  2014                 CONDUIT   2653.02   237  07:03      3.67    0.08    0.20
  2015                 CONDUIT   3430.43   237  07:04      2.52    0.10    0.27
  2016                 CONDUIT    402.68   237  07:00      2.92    0.00    0.03
  2017                 CONDUIT    424.21   262  21:06      4.68    0.00    0.04
  2018                 CONDUIT    749.73   237  07:02      3.58    0.00    0.05
  2019                 CONDUIT    997.37   237  07:03      3.49    0.01    0.06
  2020                 CONDUIT    999.83   237  07:06      3.12    0.01    0.37
  2021                 CONDUIT      0.00     0  00:00      0.00    0.00    0.10
  2022                 CONDUIT   1572.86   237  07:18      1.95    0.04    0.12
  2023                 CONDUIT   1629.86   237  07:22      1.82    0.02    0.12
  2024                 CONDUIT   1831.98   237  07:26      1.53    0.05    0.15
  2025                 CONDUIT   1912.62   237  07:34      1.56    0.06    0.19
  2026                 CONDUIT   3540.98   237  07:20      1.03    0.19    0.65
  2027                 CONDUIT    671.24   259  10:43      1.21    1.46    1.00
  2028                 CONDUIT   4066.78   237  07:07      0.75    0.14    0.62
  2029                 CONDUIT    172.23     1  06:54      2.75    1.07    1.00
  2030                 CONDUIT    170.46     1  06:12      0.43    0.97    1.00
  2031                 CONDUIT    167.55     1  06:33      0.38    1.04    1.00
  2033                 CONDUIT   2903.51   237  07:22      0.43    0.15    1.00
  2034                 CONDUIT   3493.92   237  07:18      1.44    1.24    0.72
  2035                 CONDUIT   3900.97   237  07:09      1.10    1.37    0.68
  2036                 CONDUIT   1214.60   237  07:11      0.32    0.15    0.54
  2037                 CONDUIT      0.00     0  00:00      0.00    0.00    0.01
  2038                 CONDUIT    411.30   259  08:01      0.51    0.00    0.16
  2039                 CONDUIT    236.14   237  07:01      2.27    0.00    0.02
  2040                 CONDUIT    236.04   237  07:03      1.85    0.00    0.02
  2041                 CONDUIT    442.02   259  07:06      1.58    0.00    0.05
  2042                 CONDUIT    291.86   259  08:02      0.17    0.00    0.08
  2043                 CONDUIT    281.92   259  09:55      0.14    1.08    0.08
  2044                 CONDUIT    259.62   259  09:13      0.41    0.00    0.03
  2045                 CONDUIT    252.38   259  09:44      0.30    0.01    0.04
  2046                 CONDUIT    589.28   259  08:19      0.67    0.01    0.04
  2047                 CONDUIT    853.60   259  08:19      1.03    0.01    0.03
  2048                 CONDUIT    436.12   239  20:55      2.23    1.04    1.00
  2049                 CONDUIT     95.09   259  09:13      0.83    0.02    0.26
  2050                 CONDUIT      6.75   259  09:44      0.24    0.76    0.84
  2051                 CONDUIT     96.06   259  08:19      0.25    0.01    0.18
  2052                 CONDUIT      9.90   259  08:19      0.30    0.78    0.85
  
  
  ***************************
  Flow Classification Summary
  ***************************
  
  -------------------------------------------------------------------------------------
                      Adjusted    ---------- Fraction of Time in Flow Class ---------- 
                       /Actual         Up    Down  Sub   Sup   Up    Down  Norm  Inlet 
  Conduit               Length    Dry  Dry   Dry   Crit  Crit  Crit  Crit  Ltd   Ctrl  
  -------------------------------------------------------------------------------------
  2001                    1.00   0.00  0.00  0.00  0.26  0.74  0.00  0.00  1.00  0.00
  2002                    1.00   0.00  0.00  0.00  0.00  1.00  0.00  0.00  1.00  0.00
  2003                    1.00   0.00  0.00  0.00  0.00  1.00  0.00  0.00  0.63  0.00
  2004                    1.00   0.00  0.00  0.00  0.00  1.00  0.00  0.00  1.00  0.00
  2005                    1.00   0.00  0.00  0.00  0.93  0.07  0.00  0.00  1.00  0.00
  2006                    1.00   0.00  0.00  0.00  1.00  0.00  0.00  0.00  1.00  0.00
  2007                    1.00   0.00  0.00  0.00  0.99  0.01  0.00  0.00  1.00  0.00
  2008                    1.00   0.00  0.00  0.00  0.78  0.22  0.00  0.00  0.90  0.00
  2009                    1.00   0.00  0.00  0.00  0.96  0.04  0.00  0.00  0.99  0.00
  2010                    1.00   0.00  0.00  0.00  1.00  0.00  0.00  0.00  1.00  0.00
  2011                    1.00   0.00  0.00  0.00  1.00  0.00  0.00  0.00  1.00  0.00
  2012                    1.00   0.00  0.00  0.00  0.00  1.00  0.00  0.00  0.70  0.00
  2013                    1.00   0.00  0.00  0.00  0.00  1.00  0.00  0.00  1.00  0.00
  2014                    1.00   0.00  0.00  0.00  0.00  1.00  0.00  0.00  1.00  0.00
  2015                    1.00   0.00  0.00  0.00  0.98  0.01  0.00  0.00  1.00  0.00
  2016                    1.00   0.00  0.00  0.00  0.05  0.95  0.00  0.00  1.00  0.00
  2017                    1.00   0.00  0.00  0.00  0.00  1.00  0.00  0.00  1.00  0.00
  2018                    1.00   0.00  0.00  0.00  0.00  1.00  0.00  0.00  1.00  0.00
  2019                    1.00   0.00  0.00  0.00  0.00  1.00  0.00  0.00  0.38  0.00
  2020                    1.00   0.00  0.00  0.00  1.00  0.00  0.00  0.00  1.00  0.00
  2021                    1.00   0.00  1.00  0.00  0.00  0.00  0.00  0.00  0.00  0.00
  2022                    1.00   0.00  0.00  0.00  0.45  0.55  0.00  0.00  0.00  0.00
  2023                    1.00   0.00  0.00  0.00  0.99  0.00  0.00  0.00  1.00  0.00
  2024                    1.00   0.00  0.00  0.00  1.00  0.00  0.00  0.00  0.00  0.00
  2025                    1.00   0.00  0.00  0.00  1.00  0.00  0.00  0.00  1.00  0.00
  2026                    1.00   0.00  0.00  0.00  1.00  0.00  0.00  0.00  1.00  0.00
  2027                    1.00   0.00  0.00  0.00  1.00  0.00  0.00  0.00  0.00  0.00
  2028                    1.00   0.00  0.00  0.00  1.00  0.00  0.00  0.00  1.00  0.00
  2029                    1.00   0.00  0.00  0.00  1.00  0.00  0.00  0.00  0.00  0.00
  2030                    1.00   0.00  0.00  0.00  1.00  0.00  0.00  0.00  0.00  0.00
  2031                    1.00   0.00  0.00  0.00  1.00  0.00  0.00  0.00  0.00  0.00
  2033                    1.00   0.00  0.00  0.00  0.99  0.00  0.00  0.00  0.39  0.00
  2034                    1.00   0.00  0.46  0.00  0.53  0.00  0.00  0.00  0.37  0.00
  2035                    1.00   0.00  0.00  0.00  1.00  0.00  0.00  0.00  0.00  0.00
  2036                    1.00   0.00  0.00  0.00  1.00  0.00  0.00  0.00  0.00  0.00
  2037                    1.00   0.00  0.99  0.00  0.00  0.00  0.00  0.00  0.00  0.00
  2038                    1.00   0.00  0.00  0.00  0.99  0.00  0.00  0.00  0.99  0.00
  2039                    1.00   0.00  0.00  0.00  0.00  0.99  0.00  0.00  0.00  0.00
  2040                    1.00   0.00  0.00  0.00  0.00  0.99  0.00  0.00  0.99  0.00
  2041                    1.00   0.00  0.00  0.00  0.04  0.95  0.00  0.00  0.99  0.00
  2042                    1.00   0.00  0.00  0.00  0.99  0.00  0.00  0.00  0.99  0.00
  2043                    1.00   0.00  0.00  0.00  0.99  0.00  0.00  0.00  0.00  0.00
  2044                    1.00   0.00  0.00  0.00  0.99  0.00  0.00  0.00  0.99  0.00
  2045                    1.00   0.00  0.00  0.00  0.99  0.00  0.00  0.00  0.99  0.00
  2046                    1.00   0.00  0.00  0.00  0.99  0.00  0.00  0.00  0.94  0.00
  2047                    1.00   0.04  0.00  0.00  0.96  0.00  0.00  0.00  0.00  0.00
  2048                    1.00   0.00  0.00  0.00  0.36  0.64  0.00  0.00  0.99  0.00
  2049                    1.00   0.00  0.00  0.00  0.99  0.00  0.00  0.00  0.99  0.00
  2050                    1.00   0.00  0.00  0.00  0.99  0.00  0.00  0.00  0.99  0.00
  2051                    1.00   0.00  0.00  0.00  0.99  0.00  0.00  0.00  0.99  0.00
  2052                    1.00   0.00  0.04  0.00  0.96  0.00  0.00  0.00  0.99  0.00
  
  
  *************************
  Conduit Surcharge Summary
  *************************
  
  ----------------------------------------------------------------------------
                                                           Hours        Hours 
                         --------- Hours Full --------   Above Full   Capacity
  Conduit                Both Ends  Upstream  Dnstream   Normal Flow   Limited
  ----------------------------------------------------------------------------
  2026                        0.01      0.01   5847.05      0.01         0.01
  2027                       17.79   6353.24     17.79   5055.09        17.79
  2028                        0.01      0.01     78.67      0.01         0.01
  2029                     3613.70   7915.37   3613.70   7915.67      3613.70
  2030                     3613.70   3613.70   7913.81      0.01         0.01
  2031                     7913.81   7913.81   7916.12   7915.09      7913.79
  2033                      650.51    650.51   5713.30      0.01         0.01
  2034                        0.01      0.01   6565.15     23.34         0.01
  2035                        0.01      0.01    425.85     74.92         0.01
  2043                        0.01      0.01      0.01      7.16         0.01
  2048                       16.87     24.14     72.25     38.80         0.01
  2050                        0.01      0.01   7039.17      0.01         0.01
  2052                        0.01      0.01   6851.77      0.01         0.01
  

  Analysis begun on:  Wed Dec  5 13:29:20 2018
  Analysis ended on:  Wed Dec  5 13:30:14 2018
  Total elapsed time: 00:00:54