
  EPA STORM WATER MANAGEMENT MODEL - VERSION 5.1 (Build 5.2.0.dev1)
  --------------------------------------------------------------

  
  ERROR 209: undefined object NO at line 228 of [OUTFALL] section:
  3001             1144       FREE       NaN              NO  

  
  ERROR 209: undefined object NO at line 229 of [OUTFALL] section:
  3002             1099       FREE       NaN              NO  

  
  ERROR 209: undefined object NO at line 230 of [OUTFALL] section:
  3003             1030       FREE       NaN              NO  

  
  ERROR 209: undefined object NO at line 231 of [OUTFALL] section:
  3005             1142       FREE       NaN              NO  


  Analysis begun on:  Thu Sep 27 18:00:00 2018
  Analysis ended on:  Thu Sep 27 18:00:01 2018
  Total elapsed time: 00:00:01