
  EPA STORM WATER MANAGEMENT MODEL - VERSION 5.1 (Build 5.1.013)
  --------------------------------------------------------------

  
  ERROR 209: undefined object 16.0 at line 214 of [CONDUIT] section:
  0                16.0             0.0              4087.17506 0.01       *          *          0          0          

  
  ERROR 209: undefined object 16.0 at line 215 of [CONDUIT] section:
  1                16.0             1.0              2879.23601 0.01       *          *          0          0          

  
  ERROR 209: undefined object 3.0 at line 216 of [CONDUIT] section:
  2                3.0              2.0              390.51248  0.01       *          *          0          0          

  
  ERROR 209: undefined object 2.0 at line 217 of [CONDUIT] section:
  3                2.0              3.0              390.51248  0.01       *          *          0          0          

  
  ERROR 209: undefined object 4.0 at line 218 of [CONDUIT] section:
  4                4.0              3.0              364.00549  0.01       *          *          0          0          

  
  ERROR 209: undefined object 13.0 at line 219 of [CONDUIT] section:
  5                13.0             3.0              1983.0532  0.01       *          *          0          0          

  
  ERROR 209: undefined object 3.0 at line 220 of [CONDUIT] section:
  6                3.0              4.0              364.00549  0.01       *          *          0          0          

  
  ERROR 209: undefined object 7.0 at line 221 of [CONDUIT] section:
  7                7.0              4.0              873.21246  0.01       *          *          0          0          

  
  ERROR 209: undefined object 8.0 at line 222 of [CONDUIT] section:
  8                8.0              4.0              559.01699  0.01       *          *          0          0          

  
  ERROR 209: undefined object 7.0 at line 223 of [CONDUIT] section:
  9                7.0              5.0              150.0      0.01       *          *          0          0          

  
  ERROR 209: undefined object 7.0 at line 224 of [CONDUIT] section:
  10               7.0              6.0              206.15528  0.01       *          *          0          0          

  
  ERROR 209: undefined object 4.0 at line 225 of [CONDUIT] section:
  11               4.0              7.0              873.21246  0.01       *          *          0          0          

  
  ERROR 209: undefined object 5.0 at line 226 of [CONDUIT] section:
  12               5.0              7.0              150.0      0.01       *          *          0          0          

  
  ERROR 209: undefined object 6.0 at line 227 of [CONDUIT] section:
  13               6.0              7.0              206.15528  0.01       *          *          0          0          

  
  ERROR 209: undefined object 4.0 at line 228 of [CONDUIT] section:
  14               4.0              8.0              559.01699  0.01       *          *          0          0          

  
  ERROR 209: undefined object 9.0 at line 229 of [CONDUIT] section:
  15               9.0              8.0              111.8034   0.01       *          *          0          0          

  
  ERROR 209: undefined object 10.0 at line 230 of [CONDUIT] section:
  16               10.0             8.0              680.07353  0.01       *          *          0          0          

  
  ERROR 209: undefined object 8.0 at line 231 of [CONDUIT] section:
  17               8.0              9.0              111.8034   0.01       *          *          0          0          

  
  ERROR 209: undefined object 8.0 at line 232 of [CONDUIT] section:
  18               8.0              10.0             680.07353  0.01       *          *          0          0          

  
  ERROR 209: undefined object 11.0 at line 233 of [CONDUIT] section:
  19               11.0             10.0             50.0       0.01       *          *          0          0          

  
  ERROR 209: undefined object 15.0 at line 234 of [CONDUIT] section:
  20               15.0             10.0             1476.48231 0.01       *          *          0          0          

  
  ERROR 209: undefined object 10.0 at line 235 of [CONDUIT] section:
  21               10.0             11.0             50.0       0.01       *          *          0          0          

  
  ERROR 209: undefined object 14.0 at line 236 of [CONDUIT] section:
  22               14.0             12.0             223.6068   0.01       *          *          0          0          

  
  ERROR 209: undefined object 3.0 at line 237 of [CONDUIT] section:
  23               3.0              13.0             1983.0532  0.01       *          *          0          0          

  
  ERROR 209: undefined object 14.0 at line 238 of [CONDUIT] section:
  24               14.0             13.0             650.0      0.01       *          *          0          0          

  
  ERROR 209: undefined object 22.0 at line 239 of [CONDUIT] section:
  25               22.0             13.0             1019.8039  0.01       *          *          0          0          

  
  ERROR 209: undefined object 12.0 at line 240 of [CONDUIT] section:
  26               12.0             14.0             223.6068   0.01       *          *          0          0          

  
  ERROR 209: undefined object 13.0 at line 241 of [CONDUIT] section:
  27               13.0             14.0             650.0      0.01       *          *          0          0          

  
  ERROR 209: undefined object 19.0 at line 242 of [CONDUIT] section:
  28               19.0             14.0             1006.23059 0.01       *          *          0          0          

  
  ERROR 209: undefined object 10.0 at line 243 of [CONDUIT] section:
  29               10.0             15.0             1476.48231 0.01       *          *          0          0          

  
  ERROR 209: undefined object 0.0 at line 244 of [CONDUIT] section:
  30               0.0              16.0             4087.17506 0.01       *          *          0          0          

  
  ERROR 209: undefined object 1.0 at line 245 of [CONDUIT] section:
  31               1.0              16.0             2879.23601 0.01       *          *          0          0          

  
  ERROR 209: undefined object 22.0 at line 246 of [CONDUIT] section:
  32               22.0             16.0             827.64727  0.01       *          *          0          0          

  
  ERROR 209: undefined object 18.0 at line 247 of [CONDUIT] section:
  33               18.0             17.0             111.8034   0.01       *          *          0          0          

  
  ERROR 209: undefined object 17.0 at line 248 of [CONDUIT] section:
  34               17.0             18.0             111.8034   0.01       *          *          0          0          

  
  ERROR 209: undefined object 19.0 at line 249 of [CONDUIT] section:
  35               19.0             18.0             707.10678  0.01       *          *          0          0          

  
  ERROR 209: undefined object 21.0 at line 250 of [CONDUIT] section:
  36               21.0             18.0             364.00549  0.01       *          *          0          0          

  
  ERROR 209: undefined object 14.0 at line 251 of [CONDUIT] section:
  37               14.0             19.0             1006.23059 0.01       *          *          0          0          

  
  ERROR 209: undefined object 18.0 at line 252 of [CONDUIT] section:
  38               18.0             19.0             707.10678  0.01       *          *          0          0          

  
  ERROR 209: undefined object 20.0 at line 253 of [CONDUIT] section:
  39               20.0             19.0             250.0      0.01       *          *          0          0          

  
  ERROR 209: undefined object 19.0 at line 254 of [CONDUIT] section:
  40               19.0             20.0             250.0      0.01       *          *          0          0          

  
  ERROR 209: undefined object 18.0 at line 255 of [CONDUIT] section:
  41               18.0             21.0             364.00549  0.01       *          *          0          0          

  
  ERROR 209: undefined object 13.0 at line 256 of [CONDUIT] section:
  42               13.0             22.0             1019.8039  0.01       *          *          0          0          

  
  ERROR 209: undefined object 16.0 at line 257 of [CONDUIT] section:
  43               16.0             22.0             827.64727  0.01       *          *          0          0          

  
  ERROR 209: undefined object 23.0 at line 258 of [CONDUIT] section:
  44               23.0             22.0             3541.89215 0.01       *          *          0          0          

  
  ERROR 209: undefined object 22.0 at line 259 of [CONDUIT] section:
  45               22.0             23.0             3541.89215 0.01       *          *          0          0          


  Analysis begun on:  Wed Dec  5 17:31:02 2018
  Analysis ended on:  Wed Dec  5 17:31:03 2018
  Total elapsed time: 00:00:01